/*--------------------------------*- C++ -*----------------------------------*\
| =========                 |                                                 |
| \\      /  F ield         | OpenFOAM: The Open Source CFD Toolbox           |
|  \\    /   O peration     | Version:  2.3.0                                 |
|   \\  /    A nd           | Web:      www.OpenFOAM.org                      |
|    \\/     M anipulation  |                                                 |
\*---------------------------------------------------------------------------*/
FoamFile
{
    version     2.0;
    format      ascii;
    class       scalarField;
    object      values;
}
// * * * * * * * * * * * * * * * * * * * * * * * * * * * * * * * * * * * * * //


// Data on points
2800
(
0.000257231
0.000246888
0.000256083
0.000257162
0.000239413
0.000245747
0.000246798
0.000253271
0.00025584
0.000234028
0.00023828
0.000239303
0.000242853
0.000245449
0.000250079
0.000252765
0.000230436
0.000232904
0.000233897
0.000235321
0.00023793
0.00023952
0.000242265
0.00024715
0.000249217
0.000228452
0.000229329
0.000230285
0.000229892
0.000232503
0.000231872
0.000234656
0.000236442
0.000238561
0.000244753
0.000245849
0.000227929
0.000227372
0.000228279
0.00022628
0.000228878
0.000226345
0.000229152
0.000228671
0.000230817
0.00023392
0.000235037
0.000242979
0.000242944
0.000228734
0.000226886
0.000227733
0.000224308
0.000226871
0.000222655
0.000225467
0.000223041
0.000225194
0.000226049
0.000227157
0.000232055
0.000232003
0.000241844
0.000240597
0.000230752
0.000227743
0.000228515
0.000223833
0.000226336
0.000220632
0.000223426
0.000219271
0.000221415
0.000220335
0.000221416
0.000224113
0.000224011
0.000230859
0.000229564
0.000241334
0.00023885
0.000233874
0.000229823
0.000230507
0.000224729
0.000227144
0.000220136
0.000222885
0.000217192
0.000219307
0.0002165
0.00021754
0.000218343
0.000218173
0.000222875
0.000221493
0.000230315
0.000227759
0.000241441
0.000237696
0.000238009
0.00023302
0.000233605
0.000226878
0.000229176
0.000221042
0.000223719
0.000216666
0.000218733
0.000214375
0.000215363
0.000214465
0.000214219
0.000217073
0.000215586
0.000222311
0.000219637
0.000230415
0.000226572
0.000242156
0.000237126
0.000243077
0.00023724
0.000237716
0.000230176
0.000232327
0.000223236
0.000225812
0.00021757
0.000219571
0.000213824
0.000214752
0.000212311
0.000211987
0.000213172
0.000211577
0.000216498
0.000213686
0.000222413
0.000218422
0.00023115
0.000225988
0.000243457
0.000237153
0.000249011
0.000242403
0.00024276
0.000234526
0.000236503
0.000226611
0.000229056
0.00021979
0.000221706
0.000214724
0.000215585
0.000211744
0.000211346
0.000211003
0.000209307
0.000212591
0.000209642
0.000216607
0.000212446
0.000223174
0.000217823
0.000232502
0.000226018
0.000245344
0.00023777
0.00025576
0.000248441
0.000248673
0.000239848
0.000241624
0.000231073
0.00023336
0.00022322
0.000225032
0.00021696
0.00021775
0.00021264
0.000212178
0.000210428
0.000208647
0.000210418
0.000207349
0.000212708
0.000208382
0.000217396
0.000211836
0.000224579
0.000217857
0.000234479
0.00022666
0.000247802
0.00023897
0.000263287
0.000255304
0.000255403
0.000246074
0.000247623
0.000236541
0.000238642
0.000227767
0.000229457
0.000220427
0.000221143
0.000214886
0.000214368
0.000211323
0.00020948
0.000209842
0.00020668
0.000210542
0.000206076
0.000213521
0.000207762
0.00021885
0.000211871
0.000226641
0.000218518
0.000237074
0.000227902
0.000250826
0.000240759
0.000271571
0.000262953
0.000262914
0.000253151
0.000254451
0.000242947
0.000244833
0.000233348
0.000234898
0.000225032
0.000225668
0.000218375
0.000217815
0.000213573
0.000211694
0.000210735
0.000207517
0.000209969
0.000205403
0.000211374
0.00020545
0.00021502
0.000207798
0.000220991
0.000212547
0.00022936
0.000219795
0.00024029
0.000229759
0.000254342
0.000243154
0.000280605
0.000271367
0.000271186
0.00026104
0.000262071
0.000250237
0.000251882
0.000239898
0.000241287
0.000230694
0.000231246
0.000223016
0.000222424
0.000217073
0.000215185
0.000212984
0.00020975
0.00021086
0.000206244
0.00021081
0.000204774
0.000212905
0.000205486
0.000217227
0.000208485
0.000223822
0.000213854
0.000232748
0.000221709
0.00024406
0.000232257
0.00025824
0.000246105
0.000290401
0.000280539
0.000280214
0.000269717
0.000270462
0.000258372
0.00025975
0.000247361
0.00024857
0.000237347
0.000237806
0.000228728
0.000228114
0.00022173
0.000219861
0.000216482
0.000213275
0.000213101
0.000208491
0.0002117
0.000205618
0.000212359
0.000204809
0.000215162
0.000206179
0.000220152
0.000209815
0.000227362
0.000215816
0.00023674
0.000224294
0.000248264
0.000235345
0.000262254
0.000249531
0.000300987
0.000290481
0.000290007
0.000279175
0.00027962
0.000267327
0.000268414
0.0002557
0.000256709
0.000244937
0.000245296
0.000235444
0.000234815
0.000227465
0.000225638
0.000221137
0.000218
0.000216585
0.00021204
0.000213928
0.000207872
0.000213252
0.000205651
0.000214648
0.000205502
0.000218159
0.000207521
0.000223819
0.000211814
0.00023155
0.000218475
0.000241211
0.0002275
0.000252602
0.00023894
0.000265679
0.000253119
0.000312405
0.000301218
0.000300597
0.000289422
0.000289556
0.000277096
0.000277868
0.000264893
0.000265679
0.000253428
0.000253676
0.000243116
0.000242475
0.000234213
0.000232449
0.000226871
0.000223841
0.000221221
0.000216798
0.000217388
0.000211433
0.000215467
0.000207903
0.000215551
0.00020634
0.000217692
0.000206849
0.000221926
0.000209545
0.000228173
0.000214531
0.000236256
0.000221782
0.00024583
0.00023124
0.00025628
0.000242695
0.000267192
0.000256225
0.000324729
0.000312801
0.000312027
0.000300486
0.0003003
0.000287687
0.000288122
0.000274932
0.000275472
0.0002628
0.000262921
0.000251707
0.000251053
0.000241926
0.000240241
0.000233621
0.000230732
0.000226931
0.000222683
0.000221989
0.000216207
0.000218897
0.000211461
0.000217754
0.000208582
0.000218616
0.00020768
0.000221526
0.000208882
0.00022641
0.000212302
0.000233077
0.000217919
0.00024112
0.000225647
0.000249726
0.000235139
0.000257895
0.000245912
0.000267197
0.000257543
0.000338052
0.000325296
0.000324372
0.000312414
0.000311898
0.000299128
0.000299204
0.000285829
0.000286098
0.000273049
0.000273026
0.0002612
0.000260528
0.00025057
0.000248974
0.000241339
0.000238619
0.000233653
0.000229626
0.000227654
0.000222113
0.000223452
0.000216233
0.00022115
0.000212124
0.000220812
0.000209905
0.000222485
0.000209709
0.000226102
0.000211658
0.00023147
0.000215746
0.000238148
0.000221885
0.000245206
0.00022967
0.000251428
0.000238447
0.000257901
0.000247252
0.000265692
0.000257543
0.000352497
0.000338796
0.000337722
0.000325272
0.00032442
0.000311466
0.00031116
0.000297613
0.000297584
0.000284188
0.000283999
0.000271593
0.000270893
0.000260129
0.000258627
0.000249993
0.000247464
0.00024134
0.000237576
0.000234321
0.000229083
0.000229055
0.000222136
0.00022565
0.000216874
0.000224173
0.000213421
0.00022468
0.000211913
0.000227112
0.000212481
0.000231275
0.000215132
0.000236704
0.000219785
0.000242391
0.000226007
0.000246983
0.000233057
0.000251435
0.000239805
0.000256298
0.000247253
0.000262274
0.000256224
0.000368235
0.000353433
0.000352209
0.000339165
0.000337968
0.000324771
0.000324066
0.000310338
0.000309978
0.000296252
0.000295871
0.000282905
0.000282159
0.000270606
0.000269195
0.00025957
0.000257246
0.000249964
0.000246494
0.000241946
0.000237064
0.000235645
0.000229103
0.000231175
0.00022275
0.000228609
0.000218134
0.000228007
0.000215393
0.000229318
0.000214661
0.000232351
0.000215957
0.000236624
0.000219212
0.000241069
0.000223975
0.00024423
0.000229452
0.000246991
0.000234428
0.000249747
0.000239807
0.000252627
0.000245917
0.000258278
0.000253128
0.000385482
0.000369378
0.000367998
0.000354219
0.000352668
0.000339147
0.000338016
0.000324075
0.000323355
0.000309297
0.000308691
0.000295172
0.00029436
0.000282021
0.000280694
0.000270074
0.000267963
0.000259512
0.000256361
0.000250501
0.000246019
0.000243179
0.00023708
0.000237668
0.000229685
0.000234045
0.000223963
0.000232374
0.000220054
0.000232614
0.000218093
0.000234576
0.00021811
0.000237766
0.000220043
0.000241071
0.000223435
0.000242954
0.000227454
0.000244239
0.00023083
0.000245229
0.000234432
0.000245861
0.000238456
0.000248309
0.000242713
0.000254397
0.000249546
0.00040452
0.000386856
0.000385308
0.000370617
0.000368697
0.000354735
0.000353148
0.000338937
0.000337815
0.000323403
0.000322536
0.000308457
0.000307548
0.000294417
0.000293158
0.000281529
0.000279631
0.00026999
0.000267174
0.000259975
0.000255927
0.000251631
0.000246031
0.000245085
0.000237624
0.000240421
0.00023084
0.000237707
0.000225816
0.000236909
0.000222686
0.000237843
0.000221486
0.000240006
0.000222164
0.000242253
0.000224262
0.000242985
0.000226919
0.000242965
0.000228826
0.000242418
0.000230834
0.000241156
0.000233069
0.000241264
0.000235163
0.000244124
0.000238966
0.000250892
0.000246125
0.000425688
0.000406173
0.000404421
0.000388605
0.000386283
0.000371727
0.000369642
0.000355071
0.000353499
0.000338691
0.000337512
0.000322851
0.000321807
0.00030786
0.000306645
0.000293981
0.000292288
0.000281425
0.000278952
0.000270376
0.000266788
0.00026099
0.000255935
0.000253401
0.000246532
0.000247696
0.000238712
0.000243947
0.000232609
0.00024213
0.000228356
0.000242063
0.000225993
0.000243238
0.000225473
0.00024449
0.00022634
0.000244179
0.000227716
0.000242997
0.000228269
0.000241099
0.000228831
0.000238189
0.000229467
0.000236315
0.000229699
0.000236813
0.000231275
0.000240367
0.000235376
0.000247874
0.000243172
0.000449337
0.000427719
0.00042567
0.000408516
0.000405729
0.000390384
0.000387744
0.000372684
0.000370596
0.000355317
0.000353769
0.000338475
0.000337248
0.000322446
0.00032124
0.0003075
0.000305997
0.000293865
0.000291734
0.000281732
0.00027862
0.000271266
0.000266792
0.000262605
0.000256388
0.000255843
0.00024754
0.000251052
0.000240381
0.000248218
0.000235036
0.00024716
0.000231548
0.00024737
0.000229876
0.000247676
0.000229565
0.00024641
0.000229731
0.000244193
0.000229032
0.000241105
0.000228275
0.00023675
0.000227471
0.000233144
0.00022604
0.000231632
0.000225689
0.000232834
0.000227539
0.000237157
0.000232285
0.000245421
0.000240774
0.000475548
0.000451965
0.000449394
0.000430809
0.00042741
0.000411078
0.000407784
0.000392058
0.00038937
0.0003735
0.000371505
0.0003555
0.000354027
0.00033831
0.000337065
0.000322191
0.000320844
0.000307386
0.000305586
0.000294093
0.000291463
0.000282487
0.000278619
0.000272709
0.000267188
0.000264854
0.000257303
0.000258998
0.000249092
0.000255132
0.000242671
0.000253078
0.000238083
0.000252329
0.00023529
0.000251717
0.000233843
0.000249572
0.000232857
0.000246425
0.000230997
0.000242291
0.000229039
0.000236676
0.000226937
0.000231544
0.000224012
0.000228263
0.000221932
0.000227457
0.000221827
0.000229454
0.00022433
0.000234568
0.000229785
0.000243536
0.000238977
0.000503058
0.000479343
0.000475644
0.000456099
0.000451773
0.000434334
0.000430197
0.000413598
0.000410175
0.000393549
0.000390996
0.000374166
0.000372354
0.000355629
0.000354282
0.00033819
0.000336963
0.000322089
0.000320601
0.000307533
0.000305382
0.000294704
0.000291457
0.00028374
0.000278953
0.000274739
0.000268
0.000267776
0.000258719
0.000262847
0.000251221
0.000259774
0.000245544
0.000258057
0.000241647
0.000256543
0.000239092
0.000253572
0.000237002
0.000249589
0.00023406
0.000244533
0.000231006
0.000237825
0.000227738
0.000231356
0.000223476
0.000226508
0.000219837
0.000223923
0.000217969
0.000223925
0.000218516
0.00022674
0.000221744
0.000232594
0.000227921
0.000242236
0.000237771
0.000524028
0.000509838
0.000503112
0.000485178
0.000479187
0.000460902
0.000455559
0.000437889
0.000433512
0.000415902
0.000412632
0.000394794
0.000392529
0.000374655
0.000373119
0.000355686
0.000354519
0.000338118
0.000336909
0.000322164
0.000320478
0.000307992
0.00030537
0.000295749
0.000291719
0.000285526
0.000279644
0.000277396
0.000269259
0.000271355
0.000260662
0.000267226
0.000253889
0.000264516
0.000248893
0.000262096
0.000245246
0.000258338
0.000242084
0.000253592
0.000238128
0.000247723
0.00023407
0.000240072
0.000229756
0.000232441
0.000224306
0.000226208
0.000219269
0.000222039
0.000215801
0.000220264
0.000214577
0.000221099
0.000215856
0.000224681
0.000219823
0.000231242
0.000226674
0.000241519
0.000237151
0.000541269
0.000541743
0.000518991
0.000509502
0.000491892
0.000484557
0.000465813
0.000460065
0.000441198
0.000436956
0.000417858
0.000414957
0.000395733
0.000393885
0.00037494
0.000373749
0.000355671
0.00035469
0.000338124
0.000336876
0.000322461
0.000320457
0.000308811
0.00030555
0.000297265
0.000292273
0.000287886
0.000280723
0.000280664
0.000270988
0.000275424
0.000263095
0.000271681
0.000256987
0.000268338
0.000252249
0.000263813
0.000248039
0.00025836
0.000243122
0.000251771
0.00023814
0.000243312
0.000232886
0.000234675
0.000226389
0.000227227
0.000220105
0.000221648
0.000215192
0.00021828
0.000212352
0.000217344
0.000211859
0.000218962
0.000213887
0.000223278
0.00021854
0.000230507
0.000226031
0.000241405
0.000237123
0.000556779
0.000569727
0.000558045
0.000528984
0.000517923
0.000498741
0.000490803
0.000470433
0.00046476
0.000444051
0.000440235
0.000419361
0.000417012
0.000396312
0.00039498
0.000375015
0.000374184
0.000355614
0.000354762
0.00033825
0.000336846
0.000323031
0.000320541
0.000310029
0.000305946
0.000299293
0.000293146
0.000290803
0.000282208
0.000284379
0.000273151
0.000279545
0.000265904
0.000275245
0.000260064
0.000269956
0.000254812
0.000263837
0.000248975
0.000256602
0.000243136
0.000247452
0.000237035
0.000237952
0.000229619
0.000229442
0.000222233
0.000222615
0.000216023
0.000217821
0.000211713
0.000215287
0.000209594
0.00021514
0.000209851
0.000217508
0.000212575
0.000222516
0.000217877
0.000230402
0.000225999
0.000241911
0.000237686
0.00057129
0.00059373
0.000594453
0.000573549
0.000538989
0.000527088
0.000505215
0.00049722
0.000474462
0.000469233
0.00044628
0.00044313
0.000420327
0.000418659
0.000396519
0.00039573
0.000374904
0.000374385
0.00035556
0.00035472
0.00033855
0.000336822
0.000323919
0.000320754
0.000311688
0.000306582
0.000301818
0.000294354
0.000294119
0.000284067
0.000288121
0.000275635
0.000282813
0.000268665
0.000276744
0.000262367
0.000269983
0.000255635
0.000262162
0.000248991
0.000252421
0.000242122
0.000242182
0.000233903
0.000232748
0.000225549
0.00022482
0.000218183
0.000218754
0.000212542
0.00021478
0.000208935
0.000213032
0.000207561
0.000213641
0.000208516
0.000216719
0.000211896
0.00022241
0.000217843
0.000230943
0.000226578
0.000243033
0.00023883
0.000584814
0.00061506
0.000626244
0.00061668
0.000588174
0.000548403
0.000536211
0.000510906
0.000503313
0.000477657
0.000473187
0.000447759
0.000445455
0.000420723
0.000419793
0.000396372
0.000396078
0.000374655
0.000374328
0.000355563
0.000354564
0.000339078
0.000336822
0.000325173
0.00032112
0.000313779
0.000307476
0.000304689
0.00029587
0.000297435
0.000286188
0.000291054
0.000278044
0.000284172
0.000270682
0.000276774
0.000263067
0.000268411
0.000255655
0.00025816
0.000248082
0.00024729
0.000239159
0.000237055
0.000229959
0.000228157
0.000221566
0.000220959
0.000214728
0.000215691
0.000209765
0.000212493
0.000206891
0.0002115
0.000206211
0.000212827
0.000207824
0.000216605
0.000211859
0.000222971
0.000218435
0.000232127
0.000227756
0.000244791
0.000240566
0.00059703
0.000634194
0.000654474
0.000655335
0.000636822
0.000601569
0.000556719
0.00054474
0.000515478
0.00050868
0.000479838
0.000476361
0.000448422
0.000447051
0.000420555
0.000420324
0.000395916
0.000396
0.000374334
0.000374013
0.000355686
0.000354315
0.000339879
0.00033687
0.000326781
0.000321654
0.000316158
0.000308607
0.000307536
0.000297587
0.000299999
0.000288209
0.000292252
0.00027975
0.000284206
0.000271246
0.000275326
0.000263089
0.000264629
0.000254862
0.00025322
0.000245321
0.000242288
0.000235381
0.000232535
0.000226081
0.00022433
0.000218168
0.000217902
0.000211975
0.000213393
0.000207725
0.000210941
0.000205536
0.000210666
0.000205511
0.000212704
0.000207785
0.000217177
0.000212462
0.000224196
0.000219642
0.000233978
0.000229552
0.000247173
0.000242898
0.000607503
0.000651051
0.000679635
0.000690099
0.000681456
0.000654753
0.000613251
0.000563493
0.000552195
0.000518679
0.000512982
0.000480894
0.000478542
0.000448266
0.000447807
0.000419877
0.000420219
0.000395226
0.000395496
0.000374004
0.000373464
0.000355983
0.000353997
0.000340953
0.000336999
0.00032862
0.00032235
0.000318495
0.000309879
0.000309699
0.000299186
0.000301014
0.000289579
0.000292289
0.000280166
0.000282902
0.000271271
0.000271805
0.000262424
0.000259928
0.000252332
0.000248388
0.000241747
0.00023788
0.000231646
0.000228776
0.000222769
0.000221306
0.00021546
0.000215613
0.000209954
0.000211836
0.000206375
0.000210096
0.000204833
0.000210534
0.00020547
0.000213281
0.000208396
0.000218434
0.000213694
0.000226119
0.00022149
0.000236487
0.000231977
0.000250091
0.000245796
0.000615774
0.000665271
0.000701646
0.000721254
0.000722187
0.000704466
0.000670071
0.000622719
0.000568365
0.000558144
0.000520347
0.000515943
0.000480804
0.000479583
0.000447348
0.000447669
0.000418773
0.000419481
0.000394386
0.000394593
0.00037374
0.00037272
0.000356469
0.000353658
0.000342201
0.000337206
0.000330405
0.00032313
0.000320223
0.000311019
0.000310512
0.000300198
0.000301056
0.000289836
0.000291151
0.000280194
0.000279681
0.000270746
0.000267392
0.000260156
0.000255315
0.000249002
0.000244132
0.000238192
0.000234222
0.000228449
0.000225814
0.000220129
0.00021905
0.000213475
0.000214069
0.000208619
0.00021099
0.000205674
0.00020996
0.00020479
0.000211114
0.000206086
0.000214559
0.000209647
0.000220412
0.000215585
0.00022873
0.000223995
0.000239558
0.000235004
0.000253264
0.000249161
0.000621426
0.000676389
0.000720105
0.00074856
0.000759024
0.000750459
0.000723936
0.000682281
0.000629538
0.000571098
0.000562227
0.000520431
0.000517359
0.000479631
0.0004794
0.00044577
0.00044664
0.000417348
0.000418143
0.000393483
0.000393345
0.000373566
0.000371841
0.000357075
0.000353313
0.000343395
0.000337443
0.000331668
0.000323775
0.000320814
0.000311649
0.000310554
0.000300282
0.000300105
0.000289867
0.000288268
0.00027982
0.000275603
0.000268766
0.000263042
0.000257106
0.00025125
0.000245663
0.00024061
0.000235139
0.000231349
0.000225899
0.000223612
0.000218194
0.000217534
0.000212164
0.000213233
0.000207925
0.000210854
0.000205629
0.000210538
0.000205405
0.000212405
0.000207348
0.000216579
0.000211572
0.000223105
0.000218159
0.000231923
0.000227132
0.00024287
0.000238528
0.000256054
0.000252701
0.000624144
0.000683949
0.000734481
0.000771474
0.000791499
0.000792441
0.000774324
0.000739308
0.000690909
0.000633399
0.000571605
0.000564186
0.000518991
0.000517122
0.000477495
0.000478002
0.000443661
0.000444774
0.000415716
0.000416292
0.000392577
0.000391833
0.000373464
0.000370869
0.000357627
0.000352947
0.00034416
0.000337551
0.000332019
0.000324
0.000320859
0.00031155
0.00030981
0.000300315
0.000297593
0.000289656
0.00028457
0.000278153
0.000271562
0.000266034
0.000259208
0.00025402
0.000247895
0.000242785
0.000237851
0.000232702
0.000229221
0.00022403
0.00022214
0.000216917
0.000216719
0.000211482
0.000213101
0.000207878
0.000211431
0.000206239
0.000211835
0.000206669
0.000214452
0.000209294
0.000219335
0.0002142
0.000226402
0.000221391
0.000235352
0.000230793
0.000245741
0.000242225
0.00025718
0.000255775
0.00062376
0.000687597
0.000744249
0.000789336
0.000818853
0.000829698
0.000820713
0.000793104
0.000750051
0.00069561
0.000634146
0.000569925
0.000563883
0.000516183
0.000515244
0.00047457
0.000475473
0.00044118
0.000442188
0.000413976
0.000414036
0.000391695
0.000390141
0.000373329
0.000369831
0.00035787
0.000352473
0.000344253
0.000337344
0.000332064
0.000323703
0.00032034
0.000311583
0.000307704
0.000300279
0.000294321
0.000288326
0.000280884
0.000275774
0.000267998
0.000263236
0.000256053
0.000251346
0.000245278
0.000240484
0.000235819
0.000230916
0.00022781
0.000222798
0.000221357
0.000216254
0.000216598
0.000211434
0.000213677
0.000208477
0.000212726
0.000207496
0.000213896
0.000208624
0.000217252
0.000211959
0.000222712
0.000217509
0.000229928
0.000225172
0.000238285
0.000234625
0.00024686
0.000245405
0.000257099
0.000620292
0.000687144
0.000748995
0.000801495
0.000840234
0.000861234
0.000862131
0.000842967
0.000806154
0.000755757
0.000696204
0.000631809
0.000566238
0.00056133
0.000512226
0.000511836
0.00047106
0.000471963
0.000438471
0.000439035
0.000412218
0.000411507
0.000390813
0.000388344
0.00037302
0.000368721
0.00035769
0.00035181
0.000344304
0.000336837
0.000331788
0.000323739
0.000318672
0.000311736
0.000304899
0.00029931
0.000291033
0.000286335
0.000277628
0.000273303
0.000265075
0.000260799
0.000253602
0.000249206
0.000243361
0.000238797
0.000234482
0.000229739
0.000227069
0.000222158
0.000221252
0.000216204
0.000217172
0.000212018
0.000214965
0.000209718
0.000214788
0.000209445
0.000216718
0.000211306
0.000220683
0.000215321
0.000226313
0.000221385
0.000232911
0.000229121
0.000239393
0.000237895
0.000246756
0.000613929
0.000682605
0.000748494
0.000807447
0.000854841
0.000885981
0.000897363
0.000887718
0.000858402
0.000812988
0.000756219
0.000692718
0.00062658
0.000560823
0.000556677
0.000507393
0.000507111
0.000467187
0.000467688
0.000435714
0.000435501
0.000410517
0.00040884
0.000389913
0.000386529
0.000372549
0.00036756
0.000357738
0.000351072
0.000344283
0.000336873
0.000330585
0.00032409
0.000316377
0.000311148
0.000302058
0.000297742
0.000288127
0.000284228
0.000274969
0.000271136
0.000262815
0.000258845
0.000251819
0.000247635
0.000242111
0.000237686
0.000233793
0.000229128
0.000226985
0.000222107
0.000221824
0.000216767
0.000218447
0.000213232
0.000217015
0.000211645
0.000217612
0.000212123
0.000220177
0.000214697
0.000224333
0.000219266
0.00022933
0.00022543
0.000234006
0.000232467
0.000239268
0.000605001
0.000674199
0.000742761
0.000806925
0.000862056
0.000902961
0.000925122
0.000925941
0.000905478
0.000866427
0.000813354
0.000751473
0.000685386
0.000618789
0.000554037
0.0005502
0.000501993
0.000501345
0.000463218
0.0004629
0.00043308
0.000431796
0.000408972
0.000406218
0.00038913
0.000384822
0.000372594
0.000366573
0.000357993
0.000351108
0.000343575
0.000337437
0.000328842
0.000323907
0.000314022
0.000310038
0.000299541
0.000296039
0.000285764
0.000282368
0.000272925
0.000269396
0.000261184
0.00025741
0.00025067
0.000246601
0.000241482
0.000237108
0.000233733
0.000229075
0.000227553
0.000222645
0.00022308
0.000217945
0.000220472
0.000215123
0.00021982
0.000214299
0.000221072
0.000215515
0.000223847
0.000218678
0.000227363
0.000223376
0.000230405
0.000228833
0.00023386
0.000593937
0.00066231
0.000732054
0.000799941
0.000861543
0.000911418
0.000944247
0.000956169
0.000945816
0.000914688
0.000866733
0.000807291
0.000741783
0.000674574
0.000608841
0.000546279
0.000542259
0.000496392
0.000494874
0.000459441
0.000457896
0.0004308
0.000428211
0.00040785
0.000403881
0.000389172
0.00038355
0.000373137
0.000366606
0.000357804
0.000351897
0.000342423
0.000337683
0.000327027
0.000323292
0.00031194
0.000308781
0.000297508
0.000294522
0.000283962
0.000280871
0.000271464
0.000268116
0.000260147
0.000256465
0.000250107
0.000246064
0.000241449
0.000237055
0.000234296
0.000229582
0.000228783
0.000223777
0.000225066
0.000219785
0.000223237
0.000217731
0.00022325
0.000217663
0.000224729
0.0002195
0.000226863
0.00022282
0.000228408
0.000226813
0.000230237
0.000581205
0.000647403
0.000716814
0.000786792
0.000853314
0.00091095
0.000953859
0.000977079
0.000977811
0.000956133
0.000914979
0.000859359
0.000795105
0.000727578
0.000660726
0.000597168
0.000538017
0.000533283
0.000491016
0.000488085
0.000456243
0.000453072
0.000429276
0.000425112
0.000407883
0.000402276
0.000390015
0.000383577
0.000373494
0.000367644
0.000357288
0.000352602
0.000341196
0.000337602
0.000325425
0.000322527
0.000310275
0.000307653
0.000295974
0.000293302
0.000282688
0.00027977
0.00027055
0.000267275
0.000259655
0.000255974
0.0002501
0.00024601
0.000242003
0.000237527
0.000235491
0.000230658
0.000230717
0.00022555
0.000227769
0.000222326
0.00022661
0.000221039
0.000226862
0.000221617
0.000227703
0.000223637
0.000227867
0.000226262
0.000228217
0.000567237
0.000629961
0.00069759
0.000768015
0.00083772
0.000901554
0.000953466
0.000987669
0.001000017
0.000989079
0.000956457
0.000906393
0.000844686
0.000777339
0.000709404
0.000644322
0.000584208
0.000529776
0.000523743
0.000486414
0.000481485
0.000454185
0.000448941
0.000429294
0.000423081
0.000409053
0.000402297
0.000390957
0.000384891
0.000373662
0.000368838
0.0003567
0.0003531
0.000340122
0.00033738
0.000324162
0.000321834
0.000309036
0.000306747
0.000294906
0.000292407
0.000281906
0.000279047
0.000270131
0.000266836
0.000259673
0.00025592
0.00025064
0.000246441
0.000243154
0.000238537
0.000237357
0.000232349
0.000233336
0.000228001
0.000231055
0.000225548
0.000230142
0.000224925
0.000229765
0.000225711
0.000228653
0.000227051
0.000227652
0.000552354
0.00061035
0.000674931
0.000744273
0.0008154
0.000883644
0.000943062
0.000987387
0.001011342
0.001012011
0.000989478
0.000946824
0.000889374
0.000823368
0.000754665
0.000687816
0.000625737
0.000570267
0.000522252
0.000514194
0.000483429
0.000475737
0.000454182
0.00044628
0.000430842
0.000423087
0.000410628
0.000403932
0.000391863
0.000386628
0.000373779
0.000369969
0.000356217
0.000353481
0.000339312
0.000337176
0.000323253
0.000321288
0.000308193
0.00030609
0.000294264
0.000291821
0.000281563
0.000278669
0.000270173
0.000266783
0.000260191
0.000256306
0.000251735
0.000247375
0.000244934
0.00024013
0.00023987
0.000234689
0.000236505
0.000231109
0.000234474
0.000229331
0.000232943
0.000228937
0.000230648
0.000229064
0.000228414
0.000536559
0.00058866
0.000649248
0.00071625
0.000787173
0.000857973
0.000923112
0.000976206
0.001011192
0.001023783
0.001012521
0.000979038
0.000927744
0.000864705
0.000796236
0.00072777
0.00066324
0.000605085
0.000555333
0.000516708
0.000505383
0.000483387
0.000471921
0.000456225
0.000446265
0.000433134
0.00042513
0.000412341
0.000406284
0.000392754
0.000388461
0.000373947
0.000371019
0.000355905
0.000353829
0.000338763
0.000337038
0.000322653
0.000320901
0.000307701
0.000305658
0.000293998
0.000291513
0.000281621
0.000278618
0.000270659
0.000267119
0.000261215
0.000257151
0.000253412
0.000248853
0.000247316
0.000242335
0.000242892
0.000237653
0.000239776
0.000234754
0.000237143
0.000233222
0.000233747
0.000232195
0.000230384
0.000519207
0.00056445
0.000620634
0.000684504
0.000753912
0.00082554
0.000894486
0.00095463
0.000999525
0.001023771
0.001024425
0.001001559
0.000958305
0.000900114
0.000833388
0.00076416
0.000697215
0.000635787
0.000581952
0.00053877
0.000516603
0.000498729
0.000486303
0.000471876
0.000459414
0.000448908
0.000435771
0.000428232
0.000414102
0.000408918
0.000393657
0.000390267
0.000374199
0.000371997
0.000355758
0.000354162
0.000338433
0.000336969
0.00032232
0.000320655
0.000307509
0.000305433
0.000294066
0.000291466
0.000282063
0.000278897
0.000271596
0.000267863
0.000262768
0.000258496
0.000255637
0.0002509
0.00025016
0.000245127
0.00024598
0.000241124
0.000242282
0.000238483
0.000237858
0.00023635
0.000233459
0.000536466
0.000498636
0.000588627
0.000649287
0.000716388
0.000787422
0.000858354
0.000923631
0.000976851
0.001011927
0.001024554
0.001013265
0.000979698
0.000928284
0.000865107
0.0007965
0.000727908
0.000663273
0.00060504
0.000555219
0.000521976
0.000490854
0.000475617
0.000463176
0.000453018
0.000438525
0.000431817
0.000415836
0.000411591
0.000394545
0.000391965
0.000374505
0.000372873
0.000355725
0.000354462
0.000338271
0.000336939
0.000322203
0.000320523
0.000307575
0.000305391
0.000294448
0.000291681
0.000282893
0.000279528
0.000272999
0.000269056
0.000264809
0.000260361
0.000258271
0.00025349
0.000253031
0.000248387
0.000248296
0.000244653
0.000242898
0.000241448
0.000237546