/*--------------------------------*- C++ -*----------------------------------*\
  =========                 |
  \\      /  F ield         | OpenFOAM: The Open Source CFD Toolbox
   \\    /   O peration     | Website:  https://openfoam.org
    \\  /    A nd           | Version:  10
     \\/     M anipulation  |
\*---------------------------------------------------------------------------*/
FoamFile
{
    version         2;
    format          ascii;
    class           dictionary;
    location        "system";
    object          controlDict;
}
// * * * * * * * * * * * * * * * * * * * * * * * * * * * * * * * * * * * * * //

application     reactingFoam;

startFrom       latestTime;

startTime       0.004;

stopAt          endTime;

endTime         0.2002;

deltaT          2e-6;

writeControl    timeStep;

writeInterval   2000;

purgeWrite      0;

writeFormat     ascii;

writePrecision  10;

writeCompression off;

timeFormat      general;

timePrecision   6;

runTimeModifiable true;
libs
(
        "libturbulentGenerator.so"
        "libutilityFunctionObjects.so"
        "libFastChemistryModel.so"
);

functions
{
    surfaces
    {
        type            surfaces;
        libs            ("libsampling.so");
        writeControl    timeStep;
        writeInterval   100;
        surfaceFormat   vtk;
        fields          (T NO CH4 OH CO CO2 U p TMean CH4Mean UMean OHMean);
        interpolationScheme cellPoint;
        surfaces
        (
            interface
            {
                type            plane;
                planeType       pointAndNormal;
                pointAndNormalDict
                {
                        point   (0 0 0);
                        normal  (0 1 0);
                }
                basePoint       (0 0 0);
                normalVector    (0 1 0);
                interpolate     false;
            }
        );
    }


    fieldAverage1
    {
        type            fieldAverage;
        libs            ("libfieldFunctionObjects.so");
        enabled         true;
        writeControl   outputTime;
            resetOnRestart  false;

        fields
        (
            U
            {
                mean        on;
                prime2Mean  on;
                base        time;
            }

            CO
            {
                mean        on;
                prime2Mean  on;
                base        time;
            }
            CH4
            {
                mean        on;
                prime2Mean  on;
                base        time;
            }
            T
            {
                mean        on;
                prime2Mean  on;
                base        time;
            }
            OH
            {
                mean        on;
                prime2Mean  on;
                base        time;
            }
        );
    }

}
// ************************************************************************* //
