/*--------------------------------*- C++ -*----------------------------------*\
  =========                 |
  \\      /  F ield         | OpenFOAM: The Open Source CFD Toolbox
   \\    /   O peration     | Website:  https://openfoam.org
    \\  /    A nd           | Version:  10
     \\/     M anipulation  |
\*---------------------------------------------------------------------------*/
FoamFile
{
    format      ascii;
    class       volScalarField;
    location    "0";
    object      N2;
}
// * * * * * * * * * * * * * * * * * * * * * * * * * * * * * * * * * * * * * //

dimensions      [0 0 0 0 0 0 0];

internalField   uniform 0.77;

boundaryField
{
    inletAir
    {
        type            fixedValue;
        value           uniform 0.77;
    }
    inletCH4
    {
        type            fixedValue;
        value           uniform 0.6473;
    }
    inletPilot
    {
        type            fixedValue;
        value           uniform 0.7342;
    }
    outlet
    {
        type            zeroGradient;
    }
    side
    {
        type            zeroGradient;
    }
    wallTube
    {
        type            zeroGradient;
    }
}


// ************************************************************************* //
