!"Reduced Ethanol Skeleton Mechanism for Multi-Dimensional Engine Simulation"
!Shrabanti Roy, Rohit Mishra, Omid Askari, and Dorrin Jarrahbashi
!
!Detailed Mechanism reference  "S. Roy, O. Askari, A New Detailed Ethanol Kinetic Mechanism at Engine-Relevant Conditions, Energy  Fuels. 34 (2020) 36913708."
!
!! ----Species 39, Reactions 370-----
!!!!Validation range Temperature 700-1700, Pressure 1-80, Equivalence Ratio- (0.4-1.4) 

ELEMENTS
AR  C  H  O  N
END

SPECIES
AR  C2H5OH  O2  N2  CH3CO  H2  H  O  OH  H2O  CO2  CO-12
CH4  H2O2  HO2  CH3  CH3O2H  CH2  HCO  CH2O  CH3O  CH2OH
C2H3  CH3CHO  CH2CHO  C2H3OH  C2H5O-51  CH2CO  HCCO
C2H5O-61  C2H5O3-65  CO  S-373  C2O3-1042 C2O3-1043
C2O-1119  C2O3-1382  C2O3-1679  C2O3-1884
END

REACTIONS
O2+H(+M)=HO2(+M)                          4.650e+12 0.440     0.000            
CO2/3.80/ CO-12/1.90/ H2/2.0/ CH4/2.00/ H2O/14.00/ AR/0.67/  
    LOW/ 6.37e+14 -1.72    0.5477e+03     /                                                          
    TROE/ 5.000e-01 1e-30     1e+30     1e+30    /                                             

H + 2 O2 <=> HO2 + O2                              2.0800e+19  -1.240  0.00
H + H2O + O2 <=> H2O + HO2                         1.1010e+26  -2.440  120180.00
C2H5OH + O2 <=> C2H5O-51 + HO2                    2.0000e+13  0.000  52800.00
C2H5O-51 + H <=> C2H5OH                           1.0000e+14  0.000  0.00
C2H5OH <=> CH2OH + CH3                             1.5500e+58  -12.300  105768.00
!PLOG / 0.0010000000000000002 1.2000e+54  -12.900  100006.00 /
!PLOG / 0.010000000000000004 5.1800e+59  -14.000  99906.00 /
!PLOG / 0.10000000000000005 1.6200e+66  -15.300  105390.00 /
!PLOG / 0.9999999999999999 5.5500e+64  -14.500  106183.00 /
!PLOG / 9.999999999999991 1.5500e+58  -12.300  105768.00 /
!PLOG / 99.99999999999986 1.7800e+47  -8.960  101059.00 /
C2H5OH + O2 <=> C2H5O-61 + HO2                    1.5000e+13  0.000  50150.00
C2H5O-61 <=> C2H5O-51                            8.8400e+47  -10.740  59901.00
!PLOG / 0.0010000000000000002 2.6500e+36  -8.860  51019.00 /
!PLOG / 0.010000000000000004 3.5600e+37  -8.890  51114.00 /
!PLOG / 0.10000000000000005 4.1400e+39  -9.190  51912.00 /
!PLOG / 0.9999999999999999 5.8200e+44  -10.340  55296.00 /
!PLOG / 9.999999999999991 4.2600e+48  -11.060  59458.00 /
!PLOG / 19.999999999999986 8.8400e+47  -10.740  59901.00 /
!PLOG / 50.00000000000001 2.2300e+45  -9.840  59604.00 /
!PLOG / 99.99999999999986 1.7000e+42  -8.830  58737.00 /
C2H5O-61 + H <=> C2H5OH                           2.2690e+13  0.060  41.00
C2H5O-51 + C2H5OH <=> C2H5O-61 + C2H5OH          8.5000e-06  5.010  5010.00
CH2OH + O2 <=> CH2O + HO2                          1.5100e+15  -1.000  0.00
   DUPLICATE
CH2OH + O2 <=> CH2O + HO2                          2.4100e+14  0.000  5017.00
   DUPLICATE
C2H3OH + H <=> C2H5O-51                           3.0100e+08  1.577  3670.00
C2H5O-61 + CH2OH <=> C2H5OH + CH2O                2.3500e+12  0.000  0.00
C2H5O-51 + CH2OH <=> C2H5OH + CH2O                2.4100e+12  0.000  0.00

C2H5O-61 <=> C2H3OH + H                           3.8700e+43  -9.170  50440.00
!PLOG / 0.0010000000000000002 5.4000e+46  -11.630  44323.00 /
!PLOG / 0.010000000000000004 1.2100e+51  -12.550  47240.00 /
!PLOG / 0.10000000000000005 2.8700e+54  -13.150  50702.00 /
!PLOG / 0.9999999999999999 3.7900e+53  -12.510  52560.00 /
!PLOG / 9.999999999999991 6.3300e+46  -10.200  51441.00 /
!PLOG / 19.999999999999986 3.8700e+43  -9.170  50440.00 /
!PLOG / 50.00000000000001 5.0800e+38  -7.650  48713.00 /
!PLOG / 99.99999999999986 5.1200e+34  -6.410  47182.00 /
C2H5O-61 + O2 <=> C2H3OH + HO2                    8.9200e+03  2.146  470.00
!PLOG / 0.010000000000000004 5.1200e+02  2.496  -414.00 /
!PLOG / 0.10000000000000005 5.3300e+02  2.490  -402.00 /
!PLOG / 0.9999999999999999 7.6200e+02  2.446  -296.00 /
!PLOG / 9.999999999999991 8.9200e+03  2.146  470.00 /
!PLOG / 99.99999999999986 4.3800e+05  1.699  2330.00 /
C2H5O-51 + O2 <=> C2H3OH + HO2                    3.6660e+13  0.000  14850.00
2 C2H5O-51 <=> C2H3OH + C2H5OH                    5.8000e+12  0.000  0.00
C2H5O-51 + C2H5O-61 <=> C2H3OH + C2H5OH          1.1500e+14  -0.350  0.00
2 C2H5O-61 <=> C2H3OH + C2H5OH                    4.8480e+12  -0.233  0.00
C2H5O-61 + O2 <=> S-373                          1.6720e+13  -0.085  -567.00
S-373 <=> C2H3OH + HO2                            2.9370e+09  1.170  30100.00
CH3O + O2 <=> CH2O + HO2                           4.3800e-19  9.500  -5501.00

CH3O (+M) <=> CH2O + H (+M)                        6.8000e+13  0.000  2.617e+04
CH4/2.0/  CO-12/1.5/  CO2/2.0/  H2/2.0/  H2O/6.0/
LOW / 1.867e+25 -3.000    24.307e+03   /
TROE / 0.9  2500.0  1300.0  1e+99 /
CH3O + H <=> CH2OH + H                             4.1500e+07  1.630  1924.00
CH2OH <=> CH3O                                     2.5600e+04  2.360  33100.00
C2H5O-61 + CH3O <=> C2H5OH + CH2O                 6.1280e+12  -0.311  0.00
C2H5O-51 + CH3O <=> C2H5OH + CH2O                 6.9000e+13  -0.350  0.00
CH3CHO + O2 <=> CH3CO + HO2                        3.0100e+13  0.000  39150.00
C2H3OH <=> CH3CHO                                  4.4200e+42  -9.090  67069.00
!PLOG / 0.10000000000000005 7.4200e+46  -10.560  67420.00 /
!PLOG / 0.9999999999999999 4.4200e+42  -9.090  67069.00 /
!PLOG / 99.99999999999986 2.9000e+27  -4.350  61613.00 /
C2H3OH + HO2 <=> CH3CHO + HO2                      1.4900e+05  1.670  6810.00
C2H5O-61 <=> CH3CHO + H                           8.2600e+44  -9.590  49218.00
!PLOG / 0.0010000000000000002 5.6900e+52  -13.380  45049.00 /
!PLOG / 0.010000000000000004 3.2900e+56  -14.120  48129.00 /
!PLOG / 0.10000000000000005 8.5800e+57  -14.160  50743.00 /
!PLOG / 0.9999999999999999 5.3600e+55  -13.150  51886.00 /
!PLOG / 9.999999999999991 1.6600e+48  -10.640  50297.00 /
!PLOG / 19.999999999999986 8.2600e+44  -9.590  49218.00 /
!PLOG / 50.00000000000001 1.0100e+40  -8.060  47439.00 /
!PLOG / 99.99999999999986 1.1000e+36  -6.840  45899.00 /
C2H5O-61 + O2 <=> CH3CHO + HO2                    1.5400e+18  -1.771  1120.00
!PLOG / 0.010000000000000004 5.2600e+17  -1.637  838.00 /
!PLOG / 0.10000000000000005 5.2600e+17  -1.637  838.00 /
!PLOG / 0.9999999999999999 5.2800e+17  -1.638  839.00 /
!PLOG / 9.999999999999991 1.5400e+18  -1.771  1120.00 /
!PLOG / 99.99999999999986 3.7800e+20  -2.429  3090.00 /
C2H5O-61 + CH3CHO <=> C2H5OH + CH3CO              1.9400e-04  4.680  6310.00
C2H5O-51 + CH3CHO <=> C2H5OH + CH3CO              3.8000e+11  0.000  7210.00
CH3CO + H <=> CH3CHO                               1.5310e+13  -0.133  0.00
C2H5O-51 + CH3CO <=> C2H3OH + CH3CHO              3.3240e+11  0.367  57.00
CH2OH + CH3CO <=> CH2O + CH3CHO                    1.8100e+14  0.000  0.00
C2H5O-61 + CH3CO <=> C2H3OH + CH3CHO              1.5680e+13  -0.164  -1.00
C2H5O-61 + CH3CO <=> 2 CH3CHO                     1.8100e+14  0.000  0.00
C2H5O-51 + C2H5O-61 <=> C2H5OH + CH3CHO          2.4100e+12  0.000  0.00
2 C2H5O-61 <=> C2H5OH + CH3CHO                    4.7000e+12  0.000  0.00
S-373 <=> CH3CHO + HO2                            6.8130e+10  0.493  14563.00
H2 + M <=> 2 H + M                                 4.5770e+19  -1.400  104400.00
CH4/2.0/  CO-12/1.9/  CO2/3.8/  H2/2.5/  H2O/12.0/
H + HO2 <=> H2 + O2                                1.1400e+10  1.083  554.00
CH2OH + H <=> CH2O + H2                            6.0000e+12  0.000  0.00
CH3O + H <=> CH2O + H2                             2.0000e+13  0.000  0.00
CH3CHO + H <=> CH3CO + H2                          1.3100e+05  2.580  1220.00
C2H5OH + H <=> C2H5O-61 + H2                      8.7900e+04  2.680  2910.00
C2H5OH + H <=> C2H5O-51 + H2                      5.3100e+04  2.810  7490.00
2 H + H2 <=> 2 H2                                  9.0000e+16  -0.600  0.00
2 H + H2O <=> H2 + H2O                             6.0000e+19  -1.250  0.00
AR + H2 <=> AR + 2 H                               5.8400e+18  -1.100  104380.00
C2H5O-51 + H <=> C2H3OH + H2                      3.6200e+12  0.000  0.00
C2H5O-61 + H <=> C2H3OH + H2                      1.0830e+13  0.000  0.00
C2H5O-61 + H <=> CH3CHO + H2                      2.0000e+13  0.000  0.00
CH3CO + CH3O <=> CH2O + CH3CHO                     5.4300e+13  0.000  0.00
C2H5O3-65 <=> C2H5O-51 + O2                      3.9000e+16  -1.000  30000.00
C2H5O3-65 <=> C2H3OH + HO2                        9.5800e+07  1.460  29400.00

CH3 + H (+M) <=> CH4 (+M)                          1.2700e+16  -0.630  3.830e+02
AR/0.7/  CH4/2.0/  CO-12/1.5/  CO2/2.0/  H2/2.0/  H2O/6.0/
LOW/ 2.477e+33 -4.760    2.440e+03    /
TROE / 0.783  74.0  2940.0  6960.0 /



CH4 + H <=> CH3 + H2                               6.1400e+05  2.500  9587.00
CH3 + HO2 <=> CH4 + O2                             1.1600e+05  2.230  -3022.00
CH3 + CH3O <=> CH2O + CH4                          1.2000e+13  0.000  0.00
CH3 + CH3CHO <=> CH3CO + CH4                       7.0800e-04  4.580  1966.00
C2H5OH + CH3 <=> C2H5O-61 + CH4                   1.9930e+01  3.370  7634.00
C2H5OH + CH3 <=> C2H5O-51 + CH4                   3.3000e+02  3.300  12290.00
C2H5O-51 + CH3 <=> C2H3OH + CH4                   2.3000e+13  -0.320  0.00
CH2OH + CH3 <=> CH2O + CH4                         8.4900e+13  0.000  0.00
C2H5O-61 + CH3 <=> C2H3OH + CH4                   6.5700e+14  -0.680  0.00
C2H5O-61 + CH3 <=> CH3CHO + CH4                   8.4900e+13  0.000  0.00
CH3CHO + H <=> CH2CHO + H2                         2.7200e+03  3.100  5210.00
C2H3OH + O2 <=> CH2CHO + HO2                       5.3100e+11  0.210  39830.00
C2H3OH + H <=> CH2CHO + H2                         1.4800e+03  3.077  7220.00
C2H3OH + CH3 <=> CH2CHO + CH4                      2.0300e-08  5.900  1052.00
CH2CHO <=> CH3CO                                   1.0740e+06  2.019  37346.00
CH2CHO + H <=> C2H3OH                              5.1840e+12  0.000  0.00
CH2CHO + CH3CHO <=> C2H3OH + CH3CO                 6.3330e-04  4.305  7505.00
C2H3OH + C2H5O-51 <=> C2H5OH + CH2CHO             6.5000e-03  4.245  7200.00
C2H3OH + C2H5O-61 <=> C2H5OH + CH2CHO             3.1080e+00  3.303  1352.00
CH2CHO + CH3O <=> C2H3OH + CH2O                    1.4700e+09  1.397  -831.00
CH2CHO + CH2OH <=> C2H3OH + CH2O                   1.7080e+13  0.000  0.00
C2H5O-51 + CH2CHO <=> 2 C2H3OH                    4.8200e+13  0.000  0.00
C2H5O-61 + CH2CHO <=> 2 C2H3OH                    7.2300e+13  0.000  0.00
CH2CHO + H <=> CH3CHO                              1.1340e+13  0.277  -82.00
CH2CHO + HO2 <=> CH3CHO + O2                       1.7300e-10  6.300  -2140.00
CH2CHO + CH3CHO <=> CH3CHO + CH3CO                 3.8000e+11  0.000  7210.00
CH3 + CH3CHO <=> CH2CHO + CH4                      8.8650e-03  4.340  4850.00
C2H5O-51 + CH3CHO <=> C2H5OH + CH2CHO             6.3310e-04  4.436  5225.00
C2H5OH + CH2CHO <=> C2H5O-61 + CH3CHO             8.5000e-06  5.010  5010.00
CH2CHO + CH3O <=> CH2O + CH3CHO                    3.4510e+13  -0.233  -43.00
CH2CHO + CH2OH <=> CH2O + CH3CHO                   5.9460e+12  0.000  0.00
C2H5O-61 + CH2CHO <=> C2H3OH + CH3CHO             1.7080e+13  0.000  0.00
C2H5O-51 + CH2CHO <=> C2H3OH + CH3CHO             2.0090e+12  0.000  -43.00
C2H5O-61 + CH2CHO <=> 2 CH3CHO                    5.9460e+12  0.000  0.00
H + H2O2 <=> H2 + HO2                              2.1500e+10  1.000  6000.00
2 HO2 <=> H2O2 + O2                                1.0000e+14  0.000  11041.00
DUPLICATE
2 HO2 <=> H2O2 + O2                                1.9000e+11  0.000  -1409.00
DUPLICATE
CH4 + HO2 <=> CH3 + H2O2                           1.1300e+01  3.740  21010.00
CH2OH + HO2 <=> CH2O + H2O2                        1.2000e+13  0.000  0.00
CH3O + HO2 <=> CH2O + H2O2                         3.0100e+11  0.000  0.00
CH3CHO + HO2 <=> CH3CO + H2O2                      3.0100e+12  0.000  11920.00
C2H5OH + HO2 <=> C2H5O-61 + H2O2                  2.4500e-05  5.260  7475.00
C2H5OH + HO2 <=> C2H5O-51 + H2O2                  3.9860e-02  4.300  15333.00
H + HO2 + M <=> H2O2 + M                           6.0000e+14  1.250  -270.00
C2H5O-51 + HO2 <=> C2H3OH + H2O2                  4.8200e+13  0.000  0.00
C2H5O-61 + HO2 <=> C2H3OH + H2O2                  3.0030e+10  1.009  -600.00
C2H5O-61 + HO2 <=> CH3CHO + H2O2                  1.2100e+13  0.000  0.00
CH2CHO + H2O2 <=> C2H3OH + HO2                     6.9900e-02  3.750  10890.00
CH2CHO + H2O2 <=> CH3CHO + HO2                     1.0600e-05  5.025  1657.00
H2 + OH <=> H + H2O                                2.0200e+08  1.510  3430.00

H + OH + M <=> H2O + M                             6.1000e+22  -3.320  120790.00
AR/0.38/  CO/1.9/  CO2/3.8/  H2/3.0/  H2O/0.0/  N2/2.0/  O2/1.5/

H2O2 (+M) <=> 2 OH (+M)                            2.0000e+12  0.900  4.875e+04
CO-12/2.8/  CO2/1.6/  H2/3.7/  H2O/7.65/  H2O2/7.7/  N2/1.5/  O2/1.2/
LOW/ 2.490e+24 -2.300    48.749e+03   /
TROE / 0.43  1e-30  1.0000000000000002e+30  0.0 /


H + H2O2 <=> H2O + OH                              2.4100e+13  0.000  3970.00
H2O2 + OH <=> H2O + HO2                            1.7400e+12  0.000  318.00
DUPLICATE
H2O2 + OH <=> H2O + HO2                            7.5900e+13  0.000  7269.00
DUPLICATE
H + HO2 <=> 2 OH                                   7.0790e+13  0.000  295.00
HO2 + OH <=> H2O + O2                              7.0000e+12  0.000  -1093.00
DUPLICATE
HO2 + OH <=> H2O + O2                              4.5000e+14  0.000  10930.00
DUPLICATE
CH4 + OH <=> CH3 + H2O                             5.8300e+04  2.600  2190.00
CH3 + O2 <=> CH2O + OH                             2.6410e+00  3.283  8105.00
CH3 + OH <=> CH2O + H2                             5.3740e+09  0.287  280.00
!PLOG / 0.010000000000000004 3.5020e+05  1.441  -3244.00 /
!PLOG / 0.10000000000000005 8.8540e+05  1.327  -2975.00 /
!PLOG / 0.9999999999999999 1.6500e+07  0.973  -2010.00 /
!PLOG / 9.999999999999991 5.3740e+09  0.287  280.00 /
!PLOG / 99.99999999999986 9.4940e+18  -2.199  9769.00 /
CH3 + OH <=> CH2OH + H                             1.5250e+13  0.134  5641.00
!PLOG / 0.010000000000000004 1.6210e+10  0.965  3214.00 /
!PLOG / 0.10000000000000005 1.8070e+10  0.950  3247.00 /
!PLOG / 0.9999999999999999 4.6860e+10  0.833  3566.00 /
!PLOG / 9.999999999999991 1.5250e+13  0.134  5641.00 /
!PLOG / 99.99999999999986 3.5900e+14  -0.186  8601.00 /
CH3 + OH <=> CH3O + H                              1.7980e+09  0.965  12060.00
!PLOG / 0.010000000000000004 1.1860e+09  1.016  11940.00 /
!PLOG / 0.10000000000000005 1.1880e+09  1.016  11940.00 /
!PLOG / 0.9999999999999999 1.2300e+09  1.011  11950.00 /
!PLOG / 9.999999999999991 1.7980e+09  0.965  12060.00 /
!PLOG / 99.99999999999986 5.2420e+10  0.551  13070.00 /
CH3 + HO2 <=> CH3O + OH                            1.0000e+12  0.269  -688.00
CH2OH + OH <=> CH2O + H2O                          2.4000e+13  0.000  0.00
CH3CHO + OH <=> CH3CO + H2O                        3.3700e+12  0.000  -619.00
CH3CHO + OH <=> CH2CHO + H2O                       1.7200e+05  2.400  815.00
C2H3OH + OH <=> CH2CHO + H2O                       3.3300e+09  1.100  541.00
C2H5OH + OH <=> C2H5O-61 + H2O                    7.5200e+04  2.490  -1474.00
C2H5OH + OH <=> C2H5O-51 + H2O                    3.7600e+03  2.780  -1810.00
C2H5O3-65 <=> 2 CH2O + OH                         1.2500e+11  0.000  18900.00
CH3O + OH <=> CH2O + H2O                           5.0000e+12  0.000  0.00
2 H2O <=> H + H2O + OH                             1.0060e+26  -2.440  120180.00
2 OH <=> H2 + O2                                   2.0000e+11  0.510  50500.00
C2H5O-51 + OH <=> C2H3OH + H2O                    4.8200e+13  0.000  0.00
C2H5O-61 + OH <=> C2H3OH + H2O                    7.2300e+13  0.000  0.00
C2H5O-61 + OH <=> CH3CHO + H2O                    2.4100e+13  0.000  0.00
C2H3OH + CH2CHO <=> CH2CHO + CH3CHO                6.5000e-03  4.245  7200.00

CO-12 + H2 (+M) <=> CH2O (+M)                     4.3000e+07  1.500  7.960e+04
AR/0.7/  CH4/2.0/  CO-12/1.5/  CO2/2.0/  H2/2.0/  H2O/6.0/
 LOW/ 5.070e+27 -3.420    84.348e+03   /
TROE / 0.932  197.00000000000003  1540.0  10300.0 /


CH3CHO (+M) <=> CH4 + CO-12 (+M)                  2.7200e+21  -1.740  8.636e+04
LOW/ 1.144e+58 -11.300   95.913e+03   /
TROE / 0.00249  718.0  6.09  3780.0 /


H2 + O <=> H + OH                                  5.0800e+04  2.670  6292.00
2 O + M <=> O2 + M                                 6.1650e+15  -0.500  0.00
AR/0.83/  CH4/2.0/  CO-12/1.9/  CO2/3.8/  H2/2.5/  H2O/12.0/
H + O2 <=> O + OH                                  2.6500e+16  -0.670  17050.00
H2O + O <=> 2 OH                                   6.7000e+07  1.704  14987.00
H + O + M <=> OH + M                               4.7140e+18  -1.000  0.00
AR/0.75/  CH4/2.0/  CO-12/1.5/  CO2/2.0/  H2/2.5/  H2O/12.0/
DUPLICATE
H + O + M <=> OH + M                               1.5000e+13  0.000  5975.00
AR/0.35/  H2/1.0/  H2O/6.5/  N2/0.4/  O2/0.4/
DUPLICATE
H2O2 + O <=> HO2 + OH                              9.5500e+06  2.000  3970.00
HO2 + O <=> O2 + OH                                3.2500e+13  0.000  0.00
CH4 + O <=> CH3 + OH                               1.0200e+09  1.500  8600.00
CH3 + O2 <=> CH3O + O                              7.5460e+12  0.000  28320.00
CH3 + O <=> CH2O + H                               5.5400e+13  0.050  -136.00
CH2OH + O <=> CH2O + OH                            4.2000e+13  0.000  0.00
CH3CHO + O <=> CH3CO + OH                          5.9400e+12  0.000  1868.00
C2H3OH + O <=> CH2CHO + OH                         1.8750e+06  1.900  -860.00
C2H5OH + O <=> C2H5O-61 + OH                      1.4500e+05  2.470  876.00
C2H5OH + O <=> C2H5O-51 + OH                      9.6900e+02  3.230  4658.00
CH3O + O <=> CH2O + OH                             1.0000e+13  0.000  0.00
H + HO2 <=> H2O + O                                3.9700e+12  0.000  671.00
CH3CHO + O <=> CH2CHO + OH                         2.9200e+12  0.000  1808.00
AR + 2 O <=> AR + O2                               1.8860e+13  0.000  -1788.00
H2O + O <=> H2 + O2                                1.0700e+10  0.970  68700.00
H2O2 + O <=> H2O + O2                              8.4300e+11  0.000  3970.00
O + OH + M <=> HO2 + M                             1.0000e+15  0.000  0.00
CH3 + O <=> CH3O                                   1.0000e+13  0.000  0.00
C2H5O-51 + O <=> C2H3OH + OH                      3.6200e+12  0.000  0.00
C2H5O-61 + O <=> C2H3OH + OH                      3.6800e+11  0.750  -445.00
C2H5O-61 + O <=> CH3CHO + OH                      9.0400e+13  0.000  0.00
CH2OH + HCO <=> 2 CH2O                             1.8000e+14  0.000  0.00


H + HCO (+M) <=> CH2O (+M)                         1.0900e+12  0.480  -2.600e+02
AR/0.7/  CH4/2.0/  CO-12/1.5/  CO2/2.0/  H2/2.0/  H2O/6.0/
LOW/ 1.350e+24 -2.570    1.425e+03    /
TROE / 0.7824  271.0  2760.0  6570.0 /

CH2O + O2 <=> HCO + HO2                            8.0700e+15  0.000  53420.00
CH2O + O <=> HCO + OH                              6.2600e+09  1.150  2260.00
CH2O + H <=> H2 + HCO                              5.7400e+07  1.900  2740.00
CH2O + OH <=> H2O + HCO                            7.8200e+07  1.630  -1055.00
CH2O + HO2 <=> H2O2 + HCO                          1.8800e+04  2.700  11520.00
CH2O + CH3 <=> CH4 + HCO                           3.8300e+01  3.360  4312.00
HCO + O <=> CO-12 + OH                            3.0200e+13  0.000  0.00
H + HCO <=> CO-12 + H2                            7.3400e+13  0.000  0.00
HCO + OH <=> CO-12 + H2O                          3.0110e+13  0.000  0.00
CH3 + HCO <=> CH4 + CO-12                         2.6500e+13  0.000  0.00

CH3CHO (+M) <=> CH3 + HCO (+M)                     2.4500e+22  -1.740  8.636e+04
LOW/ 1.030e+59 -11.300   95.913e+03   /
TROE / 0.00249  718.0  6.09  3780.0 /


CH2CHO + O2 <=> 2 HCO + OH                         2.3500e+10  0.000  0.00
CH2CHO + H <=> CH3 + HCO                           2.2000e+13  0.000  0.00
CH2CHO + OH <=> CH2OH + HCO                        3.0100e+13  0.000  0.00
CH2O + CH3CO <=> CH3CHO + HCO                      1.8100e+11  0.000  12920.00
C2H5O-51 + CH2O <=> C2H5OH + HCO                  5.5000e+03  2.810  5860.00
C2H5O-61 + CH2O <=> C2H5OH + HCO                  2.3890e+04  2.097  4740.00
CH3O + HCO <=> 2 CH2O                              1.7170e+14  0.000  0.00
C2H5O-51 + HCO <=> C2H3OH + CH2O                  3.3240e+11  0.367  57.00
C2H5O-61 + HCO <=> C2H3OH + CH2O                  9.2280e+13  -0.082  -1.00
C2H5O-61 + HCO <=> CH2O + CH3CHO                  1.8100e+14  0.000  0.00
CH2CHO + CH2O <=> CH3CHO + HCO                     1.8360e+01  3.380  9040.00
CH2CHO + CH2O <=> C2H3OH + HCO                     4.2000e-03  4.360  14200.00
C2H5OH + CO-12 <=> C2H5O-61 + HCO                1.4500e+05  2.470  880.00
C2H5OH + CO-12 <=> C2H5O-51 + HCO                9.3300e-05  4.870  3500.00
C2H5O-51 + CO-12 <=> C2H3OH + HCO                3.6200e+12  0.000  0.00
CH2OH + CO-12 <=> CH2O + HCO                      1.0460e+13  0.000  0.00
C2H5O-61 + CO-12 <=> C2H3OH + HCO                9.0300e+13  0.000  0.00
C2H5O-61 + CO-12 <=> CH3CHO + HCO                1.0460e+13  0.000  0.00
C2H3OH + CO-12 <=> CH2CHO + HCO                   1.7000e+08  1.500  4130.00
CH3O + CO-12 <=> CH2O + HCO                       3.6800e+11  0.750  -445.00
CH3CHO + CO-12 <=> CH2CHO + HCO                   1.5510e+06  2.200  1000.00
CH3CHO + CO-12 <=> CH3CO + HCO                    8.0820e+04  2.023  1212.00
CO-12 + H2O2 <=> HCO + HO2                        1.3810e-02  4.118  1722.00

CO-12 + O (+M) <=> CO2 (+M)                       1.3620e+10  0.000  2.384e+03
AR/0.7/  CO-12/1.75/  CO2/3.6/  H2/2.0/  H2O/12.0/
LOW/ 1.173e+24 -2.790    4.191e+03    /

CO-12 + OH <=> CO2 + H                            7.0150e+04  2.053  -356.00
DUPLICATE
CO-12 + OH <=> CO2 + H                            5.7570e+12  -0.664  332.00
DUPLICATE
CO-12 + HO2 <=> CO2 + OH                          1.5700e+05  2.180  17940.00
CO-12 + O2 <=> CO2 + O                            1.1190e+12  0.000  47700.00
HCO + O <=> CO2 + H                                3.0000e+13  0.000  0.00
HCO + HO2 <=> CO2 + H + OH                         3.0000e+13  0.000  0.00
CO2 + 2 H <=> CO2 + H2                             5.5000e+20  -2.000  0.00
CH2 + CH4 <=> 2 CH3                                2.4600e+06  2.000  8270.00
CH2 + O2 <=> CO-12 + H2O                          1.2000e+13  0.000  0.00
CH2 + O <=> CO-12 + H2                            1.5000e+13  0.000  0.00
CH2 + O <=> H + HCO                                1.5000e+13  0.000  0.00
CH2 + H2 <=> CH3 + H                               5.0000e+05  2.000  7230.00
CH2 + OH <=> CH2O + H                              3.0000e+13  0.000  0.00

CH2 + H (+M) <=> CH3 (+M)                          2.5000e+16  -0.800  0.000e+00
AR/0.7/  CH4/2.0/  CO-12/1.5/  CO2/2.0/  H2/2.0/  H2O/6.0/
LOW/ 3.200e+27 -3.140    1.230e+03    /
TROE / 0.68  78.0  2000.0  5590.0 /


CH2 + O2 <=> HCO + OH                              1.0600e+13  0.000  1500.00
CH2 + O2 <=> CO2 + 2 H                             2.6400e+12  0.000  1500.00
CH2 + O <=> CO-12 + 2 H                           5.0000e+13  0.000  0.00
CH3 + OH <=> CH2 + H2O                             4.7880e+23  -3.155  7003.00
!PLOG / 0.010000000000000004 4.9360e+14  -0.669  -446.00 /
!PLOG / 0.10000000000000005 1.2070e+15  -0.778  -176.00 /
!PLOG / 0.9999999999999999 5.2820e+17  -1.518  1772.00 /
!PLOG / 9.999999999999991 4.7880e+23  -3.155  7003.00 /
!PLOG / 99.99999999999986 8.4330e+19  -1.962  8244.00 /
DUPLICATE
CH3 + OH <=> CH2 + H2O                             4.2930e+04  2.568  3998.00
DUPLICATE
CH2 + HO2 <=> CH2O + OH                            2.0000e+13  0.000  0.00
CH2 + O2 <=> CH2O + O                              2.4000e+12  0.000  1500.00
CH2CHO + O <=> CH2 + CO2 + H                       1.5000e+14  0.000  0.00
CH2 + HO2 <=> CH3 + O2                             3.4040e+05  1.610  4377.00
CH2 + CH3CHO <=> CH3 + CH3CO                       5.0000e+12  0.000  1790.00
CH2 + H2O2 <=> CH3 + HO2                           6.3070e-01  3.609  4331.00
C2H5OH + CH2 <=> C2H5O-51 + CH3                   5.1570e-01  3.960  3312.00
C2H5OH + CH2 <=> C2H5O-61 + CH3                   1.4500e+05  2.470  880.00
CH2 + CH3O <=> CH2O + CH3                          9.0300e+13  0.000  0.00
CH2 + CH2OH <=> CH2O + CH3                         1.2100e+12  0.000  0.00
C2H5O-51 + CH2 <=> C2H3OH + CH3                   3.6200e+12  0.000  0.00
C2H5O-61 + CH2 <=> C2H3OH + CH3                   9.0300e+13  0.000  0.00
C2H5O-61 + CH2 <=> CH3 + CH3CHO                   1.2100e+12  0.000  0.00
CH2 + CH3CHO <=> CH2CHO + CH3                      1.5510e+06  2.200  1000.00
C2H3OH + CH2 <=> CH2CHO + CH3                      1.7000e+08  1.500  4130.00
CH2 + HCO <=> CH3 + CO-12                         3.3000e+08  1.500  -890.00
CH2 + OH <=> CH3 + O                               4.8060e+10  0.750  -445.00
CH2 + CH2O <=> CH3 + HCO                           6.0400e+09  0.000  0.00
HCO + O <=> CO + OH                                3.0000e+13  0.000  0.00
CO + O2 <=> CO2 + O                                2.5000e+12  0.000  47800.00
H + HCO <=> CO + H2                                7.3400e+13  0.000  0.00
CO + OH <=> CO2 + H                                2.5000e+05  1.880  -1042.30
!PLOG / 1.3299999999999992 2.1000e+05  1.900  -1063.29 /
!PLOG / 13.329999999999998 2.5000e+05  1.880  -1042.30 /
!PLOG / 132.99999999999997 8.7000e+05  1.730  -684.54 /
!PLOG / 13334.000000000018 6.8000e+06  1.480  47.97 /
!PLOG / 133332.99999999983 2.3000e+07  1.350  973.35 /
HCO + OH <=> CO + H2O                              5.0000e+13  0.000  0.00
CO + HO2 <=> CO2 + OH                              1.5000e+14  0.000  23600.00
CH2 + O2 <=> CO + H + OH                           5.0000e+12  0.000  1500.00
CH3 + HCO <=> CH4 + CO                             2.6480e+13  0.000  0.00
H2O + HCO <=> CO + H + H2O                         1.5000e+18  -1.000  17000.00
HCO + O2 <=> CO + HO2                              6.9000e+06  1.900  1369.00
CH3 + O <=> CO + H + H2                            3.3700e+13  0.000  0.00
CH3CHO + O <=> CH3 + CO + OH                       2.9200e+12  0.000  1808.00
CH3CHO + O2 <=> CH3 + CO + HO2                     3.0100e+13  0.000  39150.00
CH3CHO + H <=> CH3 + CO + H2                       2.0500e+09  1.160  2405.00
CH3CHO + OH <=> CH3 + CO + H2O                     2.3430e+10  0.730  -1113.00
CH3CHO + HO2 <=> CH3 + CO + H2O2                   3.0100e+12  0.000  11923.00
CH3 + CH3CHO <=> CH3 + CH4 + CO                    2.7200e+06  1.770  5920.00
CH2CHO + O2 <=> CH2O + CO + OH                     1.8100e+10  0.000  0.00
HCO + M <=> CO + H + M                             1.8700e+17  -1.000  17000.00
CH4/2.0/  CO-12/1.5/  CO2/2.0/  H2/2.0/  H2O/0.0/

CO + O (+M) <=> CO2 (+M)                           1.8000e+10  0.000  2.385e+03
AR/0.5/  CH4/2.0/  CO-12/1.5/  CO2/3.5/  H2/2.0/  H2O/6.0/  O2/6.0/
LOW/ 6.020e+14 0.000     3.000e+03    /


CO + H2 (+M) <=> CH2O (+M)                         4.3000e+07  1.500  7.960e+04
AR/0.7/  CH4/2.0/  CO-12/1.5/  CO2/2.0/  H2/2.0/  H2O/6.0/
LOW/ 5.070e+27 -3.420    84.350e+03   /
TROE / 0.932  197.00000000000003  1540.0  10300.0 /


CH4 + CO <=> CH3CHO                                6.5600e+04  2.860  86900.00
C2H3 + O2 <=> CH2CHO + O                           1.7600e+23  -3.220  8697.00
!PLOG / 0.010000000000000004 7.8800e+20  -2.670  6742.00 /
!PLOG / 0.10000000000000005 7.7200e+20  -2.670  6713.00 /
!PLOG / 0.31599999999999984 9.8700e+20  -2.700  6724.00 /
!PLOG / 0.9999999999999999 7.1000e+20  -2.650  6489.00 /
!PLOG / 3.160000000000002 4.5000e+20  -2.530  6406.00 /
!PLOG / 9.999999999999991 1.7600e+23  -3.220  8697.00 /
!PLOG / 31.599999999999994 3.1400e+25  -3.770  11530.00 /
!PLOG / 99.99999999999986 1.0200e+26  -3.800  13910.00 /
DUPLICATE
C2H3 + O2 <=> CH2CHO + O                           7.3400e+09  0.720  778.00
!PLOG / 0.010000000000000004 1.3600e+10  0.620  -278.00 /
!PLOG / 0.10000000000000005 1.4200e+10  0.620  -248.00 /
!PLOG / 0.31599999999999984 1.6600e+10  0.600  -163.00 /
!PLOG / 0.9999999999999999 2.0200e+10  0.580  38.00 /
!PLOG / 3.160000000000002 9.7500e+09  0.670  248.00 /
!PLOG / 9.999999999999991 7.3400e+09  0.720  778.00 /
!PLOG / 31.599999999999994 1.5700e+09  0.920  1219.00 /
!PLOG / 99.99999999999986 7.8500e+07  1.280  1401.00 /
DUPLICATE
C2H3 + O2 <=> CH2O + HCO                           5.1800e+35  -7.200  13430.00
!PLOG / 0.010000000000000004 2.4900e+36  -7.600  12640.00 /
!PLOG / 0.10000000000000005 2.4300e+36  -7.600  12610.00 /
!PLOG / 0.31599999999999984 1.9500e+36  -7.570  12490.00 /
!PLOG / 0.9999999999999999 2.7300e+35  -7.320  11820.00 /
!PLOG / 3.160000000000002 1.4300e+36  -7.470  12460.00 /
!PLOG / 9.999999999999991 5.1800e+35  -7.200  13430.00 /
!PLOG / 31.599999999999994 3.1900e+20  -2.570  5578.00 /
!PLOG / 99.99999999999986 2.7300e+33  -6.280  16000.00 /
DUPLICATE
C2H3 + O2 <=> CH2O + HCO                           2.5600e+15  -1.180  1429.00
!PLOG / 0.010000000000000004 4.5400e+15  -1.280  515.00 /
!PLOG / 0.10000000000000005 4.5900e+15  -1.280  513.00 /
!PLOG / 0.31599999999999984 4.8100e+15  -1.290  521.00 /
!PLOG / 0.9999999999999999 6.0800e+15  -1.310  646.00 /
!PLOG / 3.160000000000002 9.4500e+15  -1.360  1066.00 /
!PLOG / 9.999999999999991 2.5600e+15  -1.180  1429.00 /
!PLOG / 31.599999999999994 1.0300e+69  -19.230  14760.00 /
!PLOG / 99.99999999999986 4.2100e+10  0.190  831.00 /
DUPLICATE
C2H3 + O2 <=> CH2O + CO-12 + H                    1.2100e+36  -7.200  13430.00
!PLOG / 0.010000000000000004 5.8200e+36  -7.600  12640.00 /
!PLOG / 0.10000000000000005 5.6600e+36  -7.600  12610.00 /
!PLOG / 0.31599999999999984 4.5500e+36  -7.570  12490.00 /
!PLOG / 0.9999999999999999 6.3600e+35  -7.320  11820.00 /
!PLOG / 3.160000000000002 3.3500e+36  -7.470  12460.00 /
!PLOG / 9.999999999999991 1.2100e+36  -7.200  13430.00 /
!PLOG / 31.599999999999994 7.4300e+20  -2.570  5578.00 /
!PLOG / 99.99999999999986 6.3600e+33  -6.280  16000.00 /
DUPLICATE
C2H3 + O2 <=> CH2O + CO-12 + H                    5.9800e+15  -1.180  1429.00
!PLOG / 0.010000000000000004 1.0600e+16  -1.280  515.00 /