THERMO ALL
   300.000  1000.000  5000.000
H2                121286H   2               G  0300.00   5000.00  1000.00      1
 0.02991423E+02 0.07000644E-02-0.05633828E-06-0.09231578E-10 0.15827519E-14    2
-0.08350340E+04-0.13551101E+01 0.03298124E+02 0.08249441E-02-0.08143015E-05    3
-0.09475434E-09 0.04134872E-11-0.10125209E+04-0.03294094E+02                   4
O2 REF ELEMENT    RUS 89O   20   00   00   0G   200.000  6000.00  1000.0       1
 3.66096083E+00 6.56365523E-04-1.41149485E-07 2.05797658E-11-1.29913248E-15    2
-1.21597725E+03 3.41536184E+00 3.78245636E+00-2.99673415E-03 9.84730200E-06    3
-9.68129508E-09 3.24372836E-12-1.06394356E+03 3.65767573E+00 0.00000000E+00    4
H                       H   1O   0C   0    0G   300.00   5000.00  1000.00      1
 0.25000000E+01 0.00000000E+00 0.00000000E+00 0.00000000E+00 0.00000000E+00    2
 0.25471600E+05-0.46000000E+00 0.25000000E+01 0.00000000E+00 0.00000000E+00    3
 0.00000000E+00 0.00000000E+00 0.25471600E+05-0.46000000E+00                   4
O                       O   1H   0C   00   0G   300.00   5000.00  1000.00      1
 0.25420600E+01-0.27550000E-04-0.31000000E-08 0.45500000E-11-0.44000000E-15    2
 0.29230800E+05 0.49200000E+01 0.29464300E+01-0.16381700E-02 0.24210300E-05    3
-0.16028400E-08 0.38907000E-12 0.29147600E+05 0.29640000E+01                   4
OH                      H   1O   10   00   0G   200.00   6000.00  1000.00      1
 2.83853033E+00 1.10741289E-03-2.94000209E-07 4.20698729E-11-2.42289890E-15    2
 3.69780808E+03 5.84494652E+00 3.99198424E+00-2.40106655E-03 4.61664033E-06    3
-3.87916306E-09 1.36319502E-12 3.36889836E+03-1.03998477E-01 4.48613328E+03    4
HO2                     H   1O   20   00   0G   300.00   5000.00  1000.00      1
 0.40721900E+01 0.21313000E-02-0.53081000E-06 0.61120000E-10-0.28400000E-14    2
-0.15800000E+03 0.34760000E+01 0.29799600E+01 0.49967000E-02-0.37910000E-05    3
 0.23541900E-08-0.80890000E-12 0.17620000E+03 0.92230000E+01                   4
H2O                     H   2O   10   00   0G   300.00   5000.00  1000.00      1
 0.26721500E+01 0.30562900E-02-0.87303000E-06 0.12010000E-09-0.63900000E-14    2
-0.29899200E+05 0.68630000E+01 0.33868400E+01 0.34749800E-02-0.63547000E-05    3
 0.69685800E-08-0.25065900E-11-0.30208100E+05 0.25900000E+01                   4
H2O2                    H   2O   20   00   0G   300.00   5000.00  1000.00      1
 0.45731700E+01 0.43361400E-02-0.14746900E-05 0.23489000E-09-0.14320000E-13    2
-0.18007000E+05 0.50100000E+00 0.33887500E+01 0.65692300E-02-0.14850000E-06    3
-0.46258100E-08 0.24715100E-11-0.17663100E+05 0.67850000E+01                   4
N2                      N   2O   0C   00   0G   300.00   5000.00  1000.00      1
 0.29266400E+01 0.14879800E-02-0.56848000E-06 0.10097000E-09-0.67500000E-14    2
-0.92280000E+03 0.59810000E+01 0.32986800E+01 0.14082400E-02-0.39632200E-05    3
 0.56415100E-08-0.24448500E-11-0.10209000E+04 0.39500000E+01                   4
AR                      AR  10   00   00   0G   300.00   5000.00  1000.00      1
 0.25000000E+01 0.00000000E+00 0.00000000E+00 0.00000000E+00 0.00000000E+00    2
-0.74540000E+03 0.43660000E+01 0.25000000E+01 0.00000000E+00 0.00000000E+00    3
 0.00000000E+00 0.00000000E+00-0.74540000E+03 0.43660000E+01                   4

! BASE C1

CO                      C   1O   10   00   0G   300.00   5000.00  1000.00      1
 0.30250800E+01 0.14426900E-02-0.56308000E-06 0.10186000E-09-0.69100000E-14    2
-0.14268300E+05 0.61080000E+01 0.32624500E+01 0.15119400E-02-0.38817500E-05    3
 0.55819400E-08-0.24749500E-11-0.14310500E+05 0.48490000E+01                   4
CO2                     C   1O   20   00   0G   300.00   5000.00  1000.00      1
 0.44536200E+01 0.31401700E-02-0.12784100E-05 0.23940000E-09-0.16690000E-13    2
-0.48967000E+05-0.95500000E+00 0.22757200E+01 0.99220700E-02-0.10409110E-04    3
 0.68666900E-08-0.21172800E-11-0.48373100E+05 0.10188000E+02                   4
CH4                     C   1H   40   00   0G   300.00   5000.00  1000.00      1
 0.16834800E+01 0.10237240E-01-0.38751300E-05 0.67856000E-09-0.45030000E-13    2
-0.10080800E+05 0.96230000E+01 0.77874000E+00 0.17476680E-01-0.27834090E-04    3
 0.30497080E-07-0.12239310E-10-0.98252000E+04 0.13722000E+02                   4
CH3                     C   1H   30   00   0G   300.00   5000.00  1000.00      1
 0.28440500E+01 0.61379700E-02-0.22303500E-05 0.37852000E-09-0.24520000E-13    2
 0.16437800E+05 0.54530000E+01 0.24304400E+01 0.11124100E-01-0.16802200E-04    3
 0.16218290E-07-0.58649500E-11 0.16423800E+05 0.67900000E+01                   4
CH2                     C   1H   20   00   0G   300.00   5000.00  1000.00      1
 0.36364100E+01 0.19330600E-02-0.16870000E-06-0.10099000E-09 0.18080000E-13    2
 0.45341300E+05 0.21565600E+01 0.37622400E+01 0.11598200E-02 0.24896000E-06    3
 0.88008000E-09-0.73324000E-12 0.45367900E+05 0.17125800E+01                   4
SCH2                    C   1H   20   00   0G   300.00   4000.00  1000.00      1
 0.35528886E+01 0.20667883E-02-0.19141160E-06-0.11046734E-09 0.20213496E-13    2
 0.49849754E+05 0.16865700E+01 0.39712651E+01-0.16990888E-03 0.10253689E-05    3
 0.24925508E-08-0.19812663E-11 0.49893676E+05 0.57532072E-01                   4
CH                      C   1H   10   00   0G   300.00   5000.00  1000.00      1
 0.21962200E+01 0.23403800E-02-0.70582000E-06 0.90080000E-10-0.38600000E-14    2
 0.70867200E+05 0.91780000E+01 0.32002000E+01 0.20728800E-02-0.51344300E-05    3
 0.57338900E-08-0.19555300E-11 0.70452600E+05 0.33320000E+01                   4 
C                       C   10   00   00   0G   300.00   5000.00  1000.00      1
 0.26020990E+01-0.17871001E-03 0.90870009E-07-0.11500002E-10 0.33000006E-15    2
 0.85421500E+05 0.41950000E+01 0.24998580E+01 0.80860004E-04-0.26977003E-06    3
 0.30407004E-09-0.11066002E-12 0.85458800E+05 0.47530000E+01                   4
CH3OH                   C   1H   4O   10   0G   300.00   5000.00  1000.00      1
 0.40290600E+01 0.93765900E-02-0.30502500E-05 0.43588000E-09-0.22250000E-13    2
-0.26157900E+05 0.23780000E+01 0.26601200E+01 0.73415100E-02 0.71700500E-05    3
-0.87931900E-08 0.23905700E-11-0.25353500E+05 0.11233000E+02                   4
CH3O                    C   1H   3O   10   0G   300.00   5000.00  1000.00      1
 0.37708000E+01 0.78715000E-02-0.26563800E-05 0.39444000E-09-0.21130000E-13    2
 0.12780000E+03 0.29300000E+01 0.21062000E+01 0.72166000E-02 0.53384700E-05    3
-0.73776400E-08 0.20756100E-11 0.97860000E+03 0.13152000E+02                   4
CH2OH                   C   1H   3O   1    0G   300.000  5000.000 1394.000     1
 5.87492023E+00 4.90306661E-03-1.63365829E-06 2.69287253E-10-1.67785355E-14    2
-4.53368423E+03-6.40569428E+00 2.61996500E+00 1.26872510E-02-8.90436910E-06    3
 3.42665195E-09-5.51810469E-13-3.41179550E+03 1.10272906E+01                   4
CH2O                    C   1H   2O   10   0G   300.00   5000.00  1000.00      1
 0.29956100E+01 0.66813200E-02-0.26289500E-05 0.47372000E-09-0.32130000E-13    2
-0.15320400E+05 0.69130000E+01 0.16527300E+01 0.12631440E-01-0.18881680E-04    3
 0.20500310E-07-0.84132400E-11-0.14865400E+05 0.13785000E+02                   4
HCO                     C   1H   1O   10   0G   300.00   5000.00  1000.00      1
 0.35572700E+01 0.33455700E-02-0.13350100E-05 0.24706000E-09-0.17140000E-13    2
 0.39163000E+04 0.55520000E+01 0.28983300E+01 0.61991500E-02-0.96230800E-05    3
 0.10898250E-07-0.45748900E-11 0.41599000E+04 0.89840000E+01                   4
CH3O2                   C   1H   3O   20   0G   300.00   5000.00  1000.00      1
 0.80089150E+01 0.54692410E-02-0.12433920E-05 0.14918130E-09-0.76185330E-14    2
-0.11378690E+04-0.16874040E+02 0.17353390E+01 0.22200340E-01-0.18841460E-04    3
 0.95013140E-08-0.22172690E-11 0.74007890E+03 0.15965260E+02                   4
CH3O2H                  C   1H   4O   20   0G   300.00   5000.00  1000.00      1
 0.73164230E+01 0.92366200E-02-0.30210870E-05 0.46897720E-09-0.28359530E-13    2
-0.18810540E+05-0.11466670E+02 0.29100540E+01 0.19374380E-01-0.10636570E-04    3
 0.23534770E-08-0.33023910E-13-0.17404750E+05 0.12014430E+02                   4
HCO3                    C   1H   1O   30   0G   300.00   5000.00  1000.00      1
 0.91176840E+01 0.27871830E-02-0.52462370E-06 0.53504280E-10-0.23907250E-14    2
-0.43973150E+05-0.19574780E+02 0.26673050E+01 0.21311320E-01-0.20434550E-04    3
 0.98506450E-08-0.19626470E-11-0.42205430E+05 0.13638040E+02                   4
HCO3H                   C   1H   2O   30   0G   300.00   5000.00  1000.00      1
 0.85022780E+01 0.67543840E-02-0.26766570E-05 0.49413330E-09-0.34278630E-13    2
-0.69682190E+05-0.16151440E+02 0.41700850E+01 0.15797880E-01-0.44609940E-05    3
-0.66219210E-08 0.41548100E-11-0.68335760E+05 0.69477160E+01                   4
HO2CHO     6/26/95 THERMC   1H   2O   3    0G   300.000  5000.000 1378.00      1
 9.87503878E+00 4.64663708E-03-1.67230522E-06 2.68624413E-10-1.59595232E-14    2
-3.80502496E+04-2.24939155E+01 2.42464726E+00 2.19706380E-02-1.68705546E-05    3
 6.25612194E-09-9.11645843E-13-3.54828006E+04 1.75027796E+01                   4
O2CHO      6/26/95 THERMC   1H   1O   3    0G   300.000  5000.000 1368.00      1
 7.24075139E+00 4.63312951E-03-1.63693995E-06 2.59706693E-10-1.52964699E-14    2
-1.87027618E+04-6.49547212E+00 3.96059309E+00 1.06002279E-02-5.25713351E-06    3
 1.01716726E-09-2.87487602E-14-1.73599383E+04 1.17807483E+01                   4
OCHO       2/14/95 THERMC   1H   1O   2    0G   300.000  5000.000 1690.00      1
 6.12628782E+00 3.75602932E-03-1.42010352E-06 2.36429200E-10-1.44167651E-14    2
-2.17698466E+04-8.01574694E+00 1.35213452E+00 1.50082004E-02-1.09896141E-05    3
 3.73679840E-09-4.81014498E-13-2.02253647E+04 1.74373147E+01                   4
HOCH2O     4/ 9/98 THERMC   1H   3O   2    0G   300.000  5000.000 1452.000     1
 6.39521515E+00 7.43673043E-03-2.50422354E-06 3.84879712E-10-2.21778689E-14    2
-2.25557758E+04-6.63865583E+00 4.11183145E+00 7.53850697E-03 3.77337370E-06    3
-5.38746005E-09 1.45615887E-12-2.12471918E+04 7.46807254E+00                   4
HOCHO      4/ 9/98 THERMC   1H   2O   2    0G   300.000  5000.000 1376.000     1
 6.68733013E+00 5.14289368E-03-1.82238513E-06 2.89719163E-10-1.70892199E-14    2
-4.83995400E+04-1.13104798E+01 1.43548185E+00 1.63363016E-02-1.06257421E-05    3
 3.32132977E-09-4.02176103E-13-4.64616504E+04 1.72885798E+01                   4

! BASE C2

C2H6                    C   2H   60   00   0G   300.00   5000.00  1000.00      1
 0.48259400E+01 0.13840430E-01-0.45572600E-05 0.67250000E-09-0.35980000E-13    2
-0.12717800E+05-0.52400000E+01 0.14625400E+01 0.15494670E-01 0.57805100E-05    3
-0.12578320E-07 0.45862700E-11-0.11239200E+05 0.14432000E+02                   4
C2H4              121286C   2H   4          G  0300.00   5000.00  1000.00      1
 0.03528419E+02 0.01148518E+00-0.04418385E-04 0.07844601E-08-0.05266848E-12    2
 0.04428289E+05 0.02230389E+02-0.08614880E+01 0.02796163E+00-0.03388677E-03    3
 0.02785152E-06-0.09737879E-10 0.05573046E+05 0.02421149E+03                   4
C2H5               12387C   2H   5          G  0300.00   5000.00  1000.00      1
 0.07190480E+02 0.06484077E-01-0.06428065E-05-0.02347879E-08 0.03880877E-12    2
 0.01067455E+06-0.01478089E+03 0.02690702E+02 0.08719133E-01 0.04419839E-04    3
 0.09338703E-08-0.03927773E-10 0.01287040E+06 0.01213820E+03                   4
C2H3                    C   2H   30   00   0G   300.00   5000.00  1000.00      1
 0.36476530E+01 0.80337780E-02-0.27644990E-05 0.47530900E-09-0.31644080E-13    2
 0.34468830E+05 0.47227800E+01 0.21388110E+01 0.87182220E-02 0.38589800E-05    3
-0.93659150E-08 0.40104980E-11 0.35079500E+05 0.13419180E+02                   4
C2H2                    C   2H   20   00   0G   300.00   5000.00  1000.00      1
 0.44367700E+01 0.53760400E-02-0.19128200E-05 0.32864000E-09-0.21570000E-13    2
 0.25667700E+05-0.28000000E+01 0.20135600E+01 0.15190450E-01-0.16163190E-04    3
 0.90789900E-08-0.19127500E-11 0.26124400E+05 0.88050000E+01                   4
C2H                     C   2H   10   00   0G   300.00   5000.00  1000.00      1
 0.44276900E+01 0.22162700E-02-0.60490000E-06 0.98830000E-10-0.73500000E-14    2
 0.65904100E+05-0.11990000E+01 0.30506700E+01 0.60516700E-02-0.49566300E-05    3
 0.28041600E-08-0.81933000E-12 0.66300100E+05 0.59540000E+01                   4
C2                      C   20   00   00   0G   300.00   5000.00  1000.00      1
 0.04135978E+02 0.06531618E-03 0.01837099E-05-0.05295085E-09 0.04712137E-13    2
 0.09967272E+06 0.07472923E+01 0.06996045E+02-0.07400601E-01 0.03234703E-04    3
 0.04802535E-07-0.03295917E-10 0.09897487E+06-0.13862268E+02                   4
C2O                     C   2O   10   00   0G   300.00   5000.00  1000.00      1
 0.48498100E+01 0.29475900E-02-0.10907300E-05 0.17926000E-09-0.11160000E-13    2
 0.32820600E+05-0.64500000E+00 0.33688500E+01 0.82418000E-02-0.87651500E-05    3
 0.55692600E-08-0.15400100E-11 0.33170800E+05 0.67130000E+01                   4
CH3HCO                  C   2H   4O   10   0G   300.00   5000.00  1000.00      1
 0.42557860E+01 0.13486030E-01-0.49183420E-05 0.82515040E-09-0.52694340E-13    2
-0.22167350E+05 0.29626580E+01 0.26969110E+01 0.12334280E-01 0.56746450E-05    3
-0.10870700E-07 0.37648250E-11-0.21403140E+05 0.12530480E+02                   4
CH3CO                   C   2H   3O   10   0G   300.00   5000.00  1000.00      1
 0.51153110E+01 0.98613270E-02-0.39464200E-05 0.72974800E-09-0.50605210E-13    2
-0.35811130E+04-0.90078660E+00 0.63079430E+01-0.12387940E-01 0.58094930E-04    3
-0.63043300E-07 0.22737730E-10-0.29439700E+04-0.23500130E+01                   4
CH3CO3    12/ 1/99 THERMC   2H   3O   3    0G   300.000  5000.000 1391.000     1
 1.12522498E+01 8.33652672E-03-2.89014530E-06 4.52781734E-10-2.64354456E-14    2
-2.60238584E+04-2.96370457E+01 3.60373432E+00 2.70080341E-02-2.08293438E-05    3
 8.50541104E-09-1.43846110E-12-2.34205171E+04 1.12014914E+01                   4
CH3CO3H   12/ 1/99 THERMC   2H   4O   3    0G   300.000  5000.000 1394.000     1
 1.37322713E+01 8.48685152E-03-2.97384001E-06 4.69349388E-10-2.75478312E-14    2
-4.41488006E+04-4.40518223E+01 2.57730860E+00 3.61100344E-02-2.93494631E-05    3
 1.19896814E-08-1.96202348E-12-4.04609764E+04 1.52535301E+01                   4
CH3CO2     2/14/95 THERMC   2H   3O   2    0G   300.000  5000.000 1395.000     1
 8.54059736E+00 8.32951214E-03-2.84722010E-06 4.41927196E-10-2.56373394E-14    2
-2.97290678E+04-2.03883545E+01 1.37440768E+00 2.49115604E-02-1.74308894E-05    3
 6.24799508E-09-9.09516835E-13-2.72330150E+04 1.81405454E+01                   4
CH2HCO                  C   2H   3O   10   0G   300.00   5000.00  1000.00      1
 0.62296160E+01 0.82942530E-02-0.30009110E-05 0.53016450E-09-0.35879900E-13    2
-0.95927900E+03-0.66267480E+01 0.22223130E+01 0.18691380E-01-0.11548250E-04    3
 0.18284110E-08 0.82339070E-12 0.20216150E+03 0.14283700E+02                   4
CH2CO                   C   2H   2O   10   0G   300.00   5000.00  1000.00      1
 0.60388200E+01 0.58048400E-02-0.19209500E-05 0.27945000E-09-0.14590000E-13    2
-0.85834000E+04-0.76580000E+01 0.29749700E+01 0.12118710E-01-0.23450500E-05    3
-0.64666800E-08 0.39056500E-11-0.76326000E+04 0.86740000E+01                   4
HCCO                    C   2H   1O   10   0G   300.00   5000.00  1000.00      1
 0.67580700E+01 0.20004000E-02-0.20276000E-06-0.10411000E-09 0.19650000E-13    2
 0.19015100E+05-0.90710000E+01 0.50479700E+01 0.44534800E-02 0.22683000E-06    3
-0.14820900E-08 0.22507000E-12 0.19658900E+05 0.48200000E+00                   4
CH3CO2     2/14/95 THERMC   2H   3O   2    0G   300.000  5000.000 1395.000     1
 8.54059736E+00 8.32951214E-03-2.84722010E-06 4.41927196E-10-2.56373394E-14    2
-2.97290678E+04-2.03883545E+01 1.37440768E+00 2.49115604E-02-1.74308894E-05    3
 6.24799508E-09-9.09516835E-13-2.72330150E+04 1.81405454E+01                   4
C2H5OH                  C   2H   6O   10   0G   300.00   5000.0   1000.00      1
 0.65624365E+01 0.15204222E-01-0.53896795E-05 0.86225011E-09-0.51289787E-13    2
-0.31525621E+05-0.94730202E+01 0.48586957E+01-0.37401726E-02 0.69555378E-04    3
-0.88654796E-07 0.35168835E-10-0.29996132E+05 0.48018545E+01                   4
C2H5O           MAR96   C   2H   5O   1     G  0300.00   5000.00  1405.00      1
 8.31182392E 00 1.03426319E-02-3.39186089E-06 5.12212617E-10-2.91601713E-14    2
-6.13097954E 03-2.13985581E 01-2.71296378E-01 2.98839812E-02-1.97090548E-05    3
 6.37339893E-09-7.77965054E-13-3.16397196E 03 2.47706003E 01                   4
CH3CHOH         MAR96   C   2H   5O   1    0G   300.000  5000.000 1524.000     1
 7.95432747E 00 1.05008170E-02-3.50631590E-06 5.36174608E-10-3.07978459E-14    2
-8.62199768E 03-1.90411129E 01 2.10026806E 00 1.92626679E-02-5.17437436E-06    3
-1.96190582E-09 9.36397060E-13-6.12873036E 03 1.40909302E 01                   4
C2H5O2     7/27/98 THERMC   2H   5O   2    0G   300.000  5000.000 1386.000     1
 9.15255914E+00 1.24709284E-02-4.27100650E-06 6.63470012E-10-3.85024363E-14    2
-7.82759319E+03-1.99384891E+01 3.25121167E+00 2.36765869E-02-1.18477606E-05    3
 2.79401564E-09-2.41043601E-13-5.44533068E+03 1.27953147E+01                   4
C2H5O2H    7/27/98 THERMC   2H   6O   2    0G   300.000  5000.000 1389.000     1
 1.15361794E+01 1.26680904E-02-4.36302927E-06 6.80516196E-10-3.96092541E-14    2
-2.58990676E+04-3.37584606E+01 2.55448138E+00 3.13447282E-02-1.84312866E-05    3
 5.15917791E-09-5.28572992E-13-2.25353676E+04 1.53197322E+01                   4
C2H4O                   C   2H   4O   10   0G   300.00   5000.00  1000.00      1
 0.59249200E+01 0.11120710E-01-0.37434100E-05 0.55414000E-09-0.29550000E-13    2
-0.93028000E+04-0.93790000E+01-0.24174000E+00 0.20761100E-01 0.21481200E-05    3
-0.16948160E-07 0.81075800E-11-0.71720000E+04 0.24432000E+02                   4
C2H4O2H    7/27/98 THERMC   2H   5O   2    0G   300.000  5000.000 1388.000     1
 1.11476965E+01 1.04949968E-02-3.62326819E-06 5.66061229E-10-3.29857328E-14    2
-8.35606734E+02-2.87480538E+01 3.40977031E+00 2.65939711E-02-1.57408161E-05    3
 4.41132564E-09-4.49209001E-13 2.05874655E+03 1.35264941E+01                   4
HO2C2H4O2  2/28/ 9 SHENGC   2H   5O   4    0G   300.000  5000.000 1389.000     1
 1.78271039E+01 8.76828394E-03-3.15540892E-06 5.06841213E-10-3.01121708E-14    2
-1.96919472E+04-6.26509007E+01 5.81254906E-01 5.33651264E-02-4.78856204E-05    3
 2.10690708E-08-3.65784220E-12-1.41852079E+04 2.83584867E+01                   4
HO2CH2CHO  2/28/ 9 SHENGC   2H   4O   3    0G   300.000  5000.000 1518.000     1
 1.55413835E+01 5.53187215E-03-2.02058210E-06 3.27757160E-10-1.96051476E-14    2
-3.53011552E+04-5.19191139E+01 1.32104706E+00 3.95035509E-02-3.18807555E-05    3
 1.16920644E-08-1.58142176E-12-3.06070328E+04 2.39043484E+01                   4
CH2CHO2H   2/28/ 9 SHENGC   2H   4O   2    0G   300.000  5000.000 1313.000     1
 1.29997018E+01 7.04643154E-03-3.11537702E-06 5.71816837E-10-3.72252422E-14    2
-1.17951036E+04-4.35697054E+01-5.09003533E+00 5.33597546E-02-4.95761678E-05    3
 2.21353583E-08-3.88417588E-12-5.92854672E+03 5.21431058E+01                   4
C2H2OH                  C   2H   3N   0O   1G   300.00   5000.00  1000.00      1
 0.47233350E+01 0.96207300E-02-0.36158930E-05 0.64574520E-09-0.43829560E-13    2
 0.14488110E+05 0.29174630E+01 0.66247990E+01-0.92478740E-02 0.42942900E-04    3
-0.44577050E-07 0.15587310E-10 0.14680820E+05-0.34617090E+01                   4
HCCOH                   C   2H   2O   10   0G   300.00   4000.00  1000.00      1
 7.32832432E+00 3.33641609E-03-3.02470511E-07-1.78110637E-10 3.24516787E-14    2
 7.59825781E+03-1.40121403E+01 3.89946532E+00 9.70107503E-03-3.11930933E-07    3
-5.53773250E-09 2.46573248E-12 8.70119043E+03 4.49187470E+00                   4
CHOCHO                  C   2H   2O   20   0G   300.00   5000.00  1000.00      1
 0.80213250E+01 0.75729310E-02-0.31166720E-05 0.58645500E-09-0.41132260E-13    2
-0.28750050E+05-0.16247820E+02 0.33600290E+01 0.12559770E-01 0.10569420E-04    3
-0.24503780E-07 0.11037460E-10-0.27087360E+05 0.97151500E+01                   4
CHOCO                   C   2H   1O   20   0G   300.00   5000.00  1000.00      1
 0.83591970E+01 0.44947090E-02-0.19879570E-05 0.38903890E-09-0.27935380E-13    2
-0.12406730E+05-0.16767200E+02 0.76697390E+01-0.12908030E-01 0.59528090E-04    3
-0.69600430E-07 0.26537680E-10-0.11337010E+05-0.86714600E+01                   4
C2H3O      7/29/ 8 LECONC   2H   3O   1    0G   300.000  5000.000 1402.000     1
 7.19614156E+00 6.91729576E-03-2.26751545E-06 3.41999671E-10-1.94428148E-14    2
 4.43745124E+03-1.30382088E+01 1.92139180E+00 2.06514815E-02-1.62205965E-05    3
 6.85662731E-09-1.18602910E-12 6.12320514E+03 1.47811148E+01                   4
PC2H4OH    3/12/95 THERMC   2H   5O   1     G  0300.00   5000.00  1391.00      1
 7.52241939E+00 1.10492715E-02-3.72576465E-06 5.72827397E-10-3.30061759E-14    2
-7.29333590E+03-1.24958732E+01 1.17714711E+00 2.48115685E-02-1.50299503E-05    3
 4.79006785E-09-6.40994211E-13-4.95369043E+03 2.20081586E+01                   4
O2C2H4OH   2/14/95 THERMC   2H   5O   3    0G   300.000  5000.000 1392.000     1
 9.22339915E 00 1.41346358E-02-4.75283025E-06 7.28795964E-10-4.18969629E-14    2
-2.35984031E 04-1.53847386E 01 3.58811609E 00 2.99414161E-02-2.35156549E-05    3
 1.12635525E-08-2.28663686E-12-2.17409435E 04 1.42166729E 01                   4

! BASE C3

C3H8                   0C   3H   8          G  0300.00   5000.00  1000.00      1
 .54638848E+01  .22160569E-01  -.77296281E-05 .12495476E-08 -.77377605E-13     2
-.15629374E+05 -.62309151E+01  -.31831896E+00 .34746405E-01 -.12885018E-04     3
-.35057037E-08  .30165358E-11  -.13851594E+05 .24514595E+02                    4
NC3H7      7/29/ 8 LECONC   3H   7    0    0G   300.000  5000.000 1392.000     1
 9.56126849E+00 1.38734820E-02-4.60227199E-06 7.24548394E-10-4.30884189E-14    2
 7.26509394E+03-2.65067472E+01-1.01686942E+00 3.94584104E-02-2.87426992E-05    3
 1.12906302E-08-1.84330666E-12 1.08704508E+04 3.00269057E+01                   4
IC3H7      7/29/ 8 LECONC   3H   7    0    0G   300.000  5000.000 1672.000     1
 6.92806640E+00 1.81150194E-02-6.36444997E-06 1.01089141E-09-5.97141538E-14    2
 7.27878657E+03-1.22422027E+01 4.27330268E-01 2.77455867E-02-8.00320231E-06    3
-1.59250137E-09 8.55006422E-13 9.93578829E+03 2.44622019E+01                   4
C3H6       7/29/ 8 LECONC   3H   6    0    0G   300.000  5000.000 2011.000     1
 7.37026919E+00 1.49257236E-02-5.19343204E-06 8.19736429E-10-4.82183580E-14    2
-1.37134802E+03-1.63663994E+01 1.74737267E-01 2.92385712E-02-1.43662857E-05    3
 2.72840194E-09-4.90818547E-14 1.22586003E+03 2.29598443E+01                   4
AC3H5      7/29/ 8 LECONC   3H   5    0    0G   300.000  5000.000 1378.000     1
 9.75762472E+00 1.00615154E-02-3.40608453E-06 5.25696641E-10-3.03917313E-14    2
 1.48064656E+04-2.86136518E+01 9.73013817E-01 2.81818597E-02-1.62938809E-05    3
 3.96194325E-09-2.25704537E-13 1.80449676E+04 1.93302063E+01                   4
TC3H5                   C   3H   50   00   0G   300.00   4000.00  1000.00      1
 0.09101018E+02 0.07964167E-01-0.07884945E-05-0.04562036E-08 0.08529212E-12    2
 0.02670680E+06-0.02150559E+03 0.03385811E+02 0.14045337E-01 0.03204127E-04    3
-0.03824120E-07-0.09053742E-11 0.02909066E+06 0.11266487E+02                   4
SC3H5                   C   3H   50   00   0G   300.00   5000.00  1000.00      1
 0.58477490E+01 0.13663110E-01-0.49967060E-05 0.88456350E-09-0.59866940E-13    2
 0.28598090E+05-0.57165180E+01 0.24096770E+01 0.15250660E-01 0.10397290E-04    3
-0.22191280E-07 0.94724950E-11 0.29973540E+05 0.14057150E+02                   4
PC3H4                   C   3H   40   00   0G   300.00   5000.00  1000.00      1
 0.60892310E+01 0.11866400E-01-0.46685320E-05 0.85588780E-09-0.59055250E-13    2
 0.19466620E+05-0.93572010E+01 0.61101990E+01-0.67416390E-02 0.53216180E-04    3
-0.60988720E-07 0.22487930E-10 0.20406530E+05-0.48582320E+01                   4
AC3H4                   C   3H   40   00   0G   300.00   5000.00  1000.00      1
 0.63218080E+01 0.11755130E-01-0.46546710E-05 0.85713520E-09-0.59327540E-13    2
 0.19990410E+05-0.11405800E+02 0.45453210E+01 0.45320690E-03 0.41642470E-04    3
-0.52550230E-07 0.20129320E-10 0.21299590E+05 0.17743890E+01                   4
C3H3                    C   3H   30   00   0G   300.00   5000.00  1000.00      1
 0.73698450E+01 0.77854710E-02-0.30216960E-05 0.55099410E-09-0.37929260E-13    2
 0.38891950E+05-0.14110520E+02 0.56629250E+01 0.43052760E-02 0.18210260E-04    3
-0.25694770E-07 0.10163000E-10 0.39782900E+05-0.32569600E+01                   4
C3H2                    C   3H   20   00   0G   300.00   5000.00  1000.00      1
 0.06530853E+02 0.05870316E-01-0.01720776E-04 0.02127498E-08-0.08291910E-13    2
 0.05115213E+06-0.11227278E+02 0.02691077E+02 0.14803664E-01-0.03250551E-04    3
-0.08644363E-07 0.05284877E-10 0.05219072E+06 0.08757391E+02                   4
NC3H7O     4/ 7/97 THERMC   3H   7O   1    0G   300.000  5000.000 1390.000     1
 1.10130308E+01 1.58110271E-02-5.38743215E-06 8.34264825E-10-4.83147349E-14    2
-1.01528968E+04-3.27511689E+01 2.89706514E-01 3.93075560E-02-2.48069355E-05    3
 8.07083573E-09-1.07998290E-12-6.24474269E+03 2.54387810E+01                   4
NC3H7OH                 C   3H   8O   1     G  0300.00   5000.00  1000.00      1
 0.78695178E+01 0.22170236E-01-0.76477927E-05 0.12332934E-08-0.76598667E-13    2
-0.36669754E+05-0.15247448E+02 0.13337798E+00 0.40273454E-01-0.14728696E-04    3
-0.80114964E-08 0.58863921E-11-0.34506324E+05 0.25219995E+02                   4
NC3H7O2                 C   3H   7O   2     G  0300.00   5000.00  1000.00      1
 0.13502689E+02 0.13771964E-01-0.35621306E-05 0.46638027E-09-0.25058699E-13    2
-0.10900663E+05-0.42337200E+02 0.34593359E+00 0.47804203E-01-0.34433560E-04    3
 0.11472139E-07-0.10343456E-11-0.70191328E+04 0.26533663E+02                   4
NC3H7O2H                C   3H   8O   2     G  0300.00   5000.00  1000.00      1
 0.11336926E+02 0.20394048E-01-0.67093242E-05 0.10477861E-08-0.63728191E-13    2
-0.30503672E+05-0.29776390E+02 0.10277675E+01 0.49290877E-01-0.32700023E-04    3
 0.73782482E-08 0.10003533E-11-0.27774795E+05 0.23159100E+02                   4
IC3H7O     4/ 7/97 THERMC   3H   7O   1    0G   300.000  5000.000 1395.000     1
 1.14592753E+01 1.55902812E-02-5.34443227E-06 8.30858106E-10-4.82455289E-14    2
-1.24638531E+04-3.62203624E+01-1.00369576E-01 4.31118928E-02-3.10631817E-05    3
 1.20668364E-08-1.97214967E-12-8.44902998E+03 2.57650010E+01                   4
IC3H7O2                 C   3H   7O   2     G  0300.00   5000.00  1000.00      1
 0.14202599E+02 0.13157809E-01-0.33661620E-05 0.43802198E-09-0.23482254E-13    2
-0.13916771E+05-0.47463253E+02-0.38399315E+00 0.53882204E-01-0.45532583E-04    3
 0.19618367E-07-0.31824515E-11-0.98001953E+04 0.28052458E+02                   4
IC3H7O2H   7/19/ 0 THERMC   3H   8O   2    0G   300.000  5000.000 1389.000     1
 1.57046391E+01 1.65924516E-02-5.77250934E-06 9.06453070E-10-5.30084111E-14    2
-3.23268564E+04-5.71735156E+01 5.19265570E-01 5.32111228E-02-4.05156892E-05    3
 1.63346713E-08-2.73751233E-12-2.71048486E+04 2.40815065E+01                   4
C3H6OOH1-2              C   3H   7O   2     G  0300.00   5000.00  1000.00      1
 0.13649559E+02 0.12750814E-01-0.31189277E-05 0.39289025E-09-0.20614268E-13    2
-0.48945811E+04-0.39010017E+02 0.15149921E+01 0.48824649E-01-0.45656896E-04    3
 0.24564915E-07-0.55713593E-11-0.15504653E+04 0.23338097E+02                   4
C3H6OOH1-3              C   3H   7O   2     G  0300.00   5000.00  1000.00      1
 0.14188224E+02 0.12368476E-01-0.30191270E-05 0.38157991E-09-0.20166079E-13    2
-0.39905498E+04-0.42191696E+02 0.64384925E+00 0.54055225E-01-0.54415486E-04    3
 0.31187664E-07-0.75596803E-11-0.35104904E+03 0.26997149E+02                   4
C3H6OOH2-1              C   3H   7O   2     G  0300.00   5000.00  1000.00      1
 0.14896511E+02 0.11743539E-01-0.28182487E-05 0.35167325E-09-0.18422740E-13    2
-0.73632920E+04-0.46675972E+02-0.70671819E-01 0.60035869E-01-0.65301727E-04    3
 0.39138424E-07-0.96432836E-11-0.34861638E+04 0.29140375E+02                   4
C3H6OOH1-1              C   3H   7O   2     G  0300.00   5000.00  1000.00      1
 0.13773190E+02 0.12478714E-01-0.30193419E-05 0.37854145E-09-0.19864939E-13    2
-0.67642393E+04-0.39605103E+02 0.39244589E+00 0.56736656E-01-0.63722880E-04    3
 0.41441332E-07-0.11236257E-10-0.33003713E+04 0.28036133E+02                   4
C3H6OOH1-2O2            C   3H   7O   4     G  0300.00   5000.00  1000.00      1
 0.18916473E+02 0.12912722E-01-0.31142890E-05 0.38873985E-09-0.20298040E-13    2
-0.25199982E+05-0.64061310E+02 0.14959549E+01 0.63019961E-01-0.55043904E-04    3
 0.22621872E-07-0.30201917E-11-0.20481516E+05 0.25471867E+02                   4
C3H6OOH1-3O2            C   3H   7O   4     G  0300.00   5000.00  1000.00      1
 0.18175089E+02 0.13586381E-01-0.33381091E-05 0.42327411E-09-0.22383283E-13    2
-0.22435437E+05-0.58695740E+02 0.22698126E+01 0.56646202E-01-0.43273030E-04    3
 0.13861366E-07-0.67737602E-12-0.17976955E+05 0.23766033E+02                   4
C3H6OOH2-1O2            C   3H   7O   4     G  0300.00   5000.00  1000.00      1
 0.18915003E+02 0.12915267E-01-0.31156469E-05 0.38901213E-09-0.20316124E-13    2
-0.25199189E+05-0.64053436E+02 0.13388267E+01 0.64106293E-01-0.57643643E-04    3
 0.25205956E-07-0.39308422E-11-0.20464656E+05 0.26136774E+02                   4
C3H6OOH1-1O2            C   3H   7O   4     G  0300.00   5000.00  1000.00      1
 0.18411318E+02 0.12571108E-01-0.29156811E-05 0.35375863E-09-0.18130491E-13    2
-0.26609484E+05-0.62735687E+02 0.91786242E+00 0.56343596E-01-0.30807794E-04    3
-0.52401790E-08 0.72193970E-11-0.21753922E+05 0.28333649E+02                   4
C3KET12    7/19/ 0 THERMC   3H   6O   3    0G   300.000  5000.000 1388.000     1