ELEMENTS
C  H  O  N
END

SPECIES
C12H23 C2H4 C12H22 HO2 OH H2O H2O2 
O2 C12H22O2 C12H21OOH OOC12H21OOH C12ket CH2O C5H11CO C2H3 CH
CO C12H21 H C2H5 HCO CH3 O C2H2 H2 C2H CH3O CH4 CH2 CO2 N2
END

REACTIONS
C12H23 => 5 C2H4+C2H3   3.00E+11   1.5   70000
C12H23+O2 => C12H22+HO2	2.00E+15	0	50150
C12H23+OH => C12H22+H2O	3.00E+07	1.85	58.5
C12H23+H => C12H22+H2	2.00E+08	2	2500
C12H23+HO2 => C12H22+H2O2	2.12E+14	0	17690
C12H22+O2 => C12H22O2	      2.00E+11	0	4500
C12H22O2 => C12H21OOH	      5.51E+13	0	19000
C12H21OOH+O2 => OOC12H21OOH	2.00E+11	0	0
OOC12H21OOH => C12ket+OH	    8.91E+10	0	17000
C12ket => CH2O+C5H11CO+OH+2C2H3+CH	1.98E+16	0	41000
C5H11CO+O2 => C2H5+C2H4+CH+CO+HO2	3.16E+13	0	10000
C12H22+O2 => C12H21+HO2	          3.16E+11	0	6000
C12H21+O2 => 3C2H4+2C2H3+CH2O+HCO	3.16E+13	0	10000
C12H22 => 4C2H4+2 C2H3	4.00E+13	0	28810
C2H4+H+M => C2H5+M	          4.17E+10	0	11030
C2H5+H => CH3+CH3   	3.16E+13	0	0
C2H4 => C2H3+H	    1.00E+12	0	50000
C2H4+H => C2H5	   7.00E+12	1	10800
C2H4+O => HCO+CH3	   3.31E+12	0	1130
HCO+CH3 => C2H4+O	   1.58E+11	0	25000
C2H4+OH => C2H3+H2O	  4.79E+12	0	1230
C2H3+H2O => C2H4+OH	  1.20E+12	0	14000
C2H4+CH3 => C2H3+CH4	1.00E+13	0	13000
C2H3+CH4 => C2H4+CH3	3.02E+13	0	12580
C2H3 => C2H+H2	5.00E+12	0	44000
C2H2+H+M => C2H3+M	  1.23E+11	1	10360
C2H3+H => C2H2+H2	   2.00E+13	0	2500
C2H+H+M => C2H2+M	    1.10E+09	1	770
C2H2+H => C2H+H2	     2.00E+14	0	19000
C2H2+OH => C2H+H2O  	8.00E+12	0	5000
C2H+H2O => C2H2+OH	  5.37E+12	0	16360
C2H2+O => C2H+OH	     3.24E+15	0.6	12000
C2H+OH => C2H2+O	     2.95E+14	0.6	910
C2H+O2 => HCO+CO	      1.00E+13	0	6500
HCO+CO => C2H+O2    	8.51E+12	0	138400


CH4(+M)=>CH3+H(+M)			6.30E+14	0	104000
      LOW  /  1.00E+17  0     86000    /	
C12H23/3.00/  CH4/6.5/ CO/0.75/  CO2/1.5/  H2/1.00/  H2O/6.5/  N2/0.4/  O2/0.4/







CH3+H(+M)=>CH4(+M)	5.20E+12	0	-1310		
LOW  / 8.25E+14 0     -19310    /
C12H23/3.00/  CH4/6.5/  CO/0.75/  CO2/1.5/  H2/1.00/  H2O/6.5/  N2/0.4/  O2/0.4/



CH4 + H => CH3 + H2   	2.20E+04	3	8750
CH3 + H2 => CH4 + H   	9.57E+02	3	8750
CH4 + OH => CH3 + H2O	1.60E+06	2.1	2460
CH3 + H2O => CH4 + OH	3.02E+05	2.1	17422
CH3 + O => CH2O + H	     6.80E+13	0	0
CH3 + O2 => CH3O + O	5.00E+13	0	25652
CH3 + OH => CH2 + H2O	7.60E+06	2	5000
CH3O + H => CH2O + H2	2.00E+13	0	0
CH3O + M => CH2O + H + M	   2.40E+13	0	28812
CH2 + O => CO + H2   	3.00E+13	0	0
CH2 + OH => CH + H2O	4.00E+07	2	3000
CH2O + H => HCO + H2	5.00E+13	0	3991
CH2O + OH => HCO + H2O	1.20E+14	0	1100
CH + O => CO + H	    5.70E+13	0	0
CH + OH => HCO + H	   3.00E+13	0	0
CH + O2 => HCO + O	    3.30E+13	0	0


CH + CO2 => HCO + CO	8.40E+13	0	200


HCO + H => CO + H2 	4.00E+13	0	0
HCO + M => CO + H + M	1.60E+14	0	14700
CO + OH => CO2 + H   	1.51E+07	1.3	-758
CO2 + H => CO + OH	   1.57E+09	1.3	20900
H + O2 => OH + O	1.70E+14	0	16800
OH + O => H + O2	1.40E+13	0	690
O + H2 => OH + H	1.80E+10	1	8826
OH + H => O + H2	8.00E+09	1	6760
H2 + OH => H2O + H	  1.17E+09	1.3	3626
H2O + H => H2 + OH	 7.00E+09	1.3	18588
OH + OH => O + H2O	   6.00E+08	1.3	0
O + H2O => OH + OH	   5.90E+09	1.3	17029
H + O2 + M => HO2 + M	8.00E+17	-0.8	0
CH4/6.5/  CO/0.75/  CO2/1.5/  H2/1.00/  H2O/6.5/  N2/0.4/  O2/0.4/

H + HO2 => OH + OH	   1.50E+14	0	1004
H + HO2 => H2 + O2	        2.50E+13	0	700
OH + HO2 => H2O + O2	2.00E+13	0	1000
HO2 + HO2 => H2O2 + O2	8.00E+13	0	0
H2O2 + M => OH + OH + M	1.30E+17	0	45500
OH + OH + M => H2O2 + M	9.86E+14	0	-5070
H2O2 + OH => H2O + HO2	1.00E+13	0	1800
H2O + HO2 => H2O2 + OH	2.86E+13	0	32790
OH + H + M => H2O + M	2.20E+22	-2	0
H + H + M => H2 + M	         1.80E+18	-1	0

END