THERMO ALL
   300.000  1000.000  5000.000
MD2D       1/26/ 7 THERMC  11H  20O   2    0G   300.000  5000.000 1385.000     1
 3.80577343E+01 4.54143617E-02-1.54448984E-05 2.39041352E-09-1.38471812E-13    2
-7.45907480E+04-1.65088422E+02-6.57029312E-02 1.31279364E-01-8.88628098E-05    3
 3.08826068E-08-4.39530562E-12-6.09976286E+04 4.08524852E+01                   4
C10H22     4/24/ 7 THERMC  10H  22    0    0G   300.000  5000.000 1391.000     1
 3.19882239e+01 4.77244922e-02-1.62276391e-05 2.50963259e-09-1.45215772e-13    2
-4.66392840e+04-1.40504121e+02-2.08416969e+00 1.22535012e-01-7.76815739e-05    3
 2.49834877e-08-3.23548038e-12-3.43021863e+04 4.42260140e+01                   4
C10H21     4/24/ 7 THERMC  10H  21    0    0G   300.000  5000.000 1385.000     1
 3.14447580e+01 4.52778532e-02-1.53145696e-05 2.36072411e-09-1.36311835e-13    2
-2.29702700e+04-1.33634423e+02-9.30536886e-01 1.13137924e-01-6.64034118e-05    3
 1.83220872e-08-1.77128003e-12-1.09890165e+04 4.29335080e+01                   4
C10H21OO   6/26/ 7 THERMC  10H  21O   2    0G   300.000  5000.000 1389.000     1
 3.52386548e+01 4.75793514e-02-1.63731335e-05 2.55214038e-09-1.48474197e-13    2
-4.32282603e+04-1.50404303e+02 1.01431524e+00 1.24157438e-01-8.21448954e-05    3
 2.85684148e-08-4.17000221e-12-3.08616979e+04 3.48377002e+01                   4
C10H20OOH  6/26/ 7 THERMC  10H  21O   2    0G   300.000  5000.000 1388.000     1
 3.68332677e+01 4.53428413e-02-1.54184908e-05 2.38498991e-09-1.38036821e-13    2
-3.71990810e+04-1.56373019e+02 9.61894530e-01 1.24898703e-01-8.11308378e-05    3
 2.63555947e-08-3.38606023e-12-2.43666092e+04 3.77015795e+01                   4
OOC10H20OOH   7/6/7THERMC  10H  21O   4    0G   300.000  5000.000 1388.000     1
 4.26897857e+01 4.59447184e-02-1.59146224e-05 2.49205540e-09-1.45456593e-13    2
-5.85330678e+04-1.85554231e+02 2.65145491e+00 1.34665017e-01-8.94738939e-05    3
 2.96279281e-08-3.90540332e-12-4.41599446e+04 3.11630265e+01                   4
C10ket     6/28/ 7      C  10H  20O   3    0G   300.000  5000.000 1395.000     1
 3.88320323e+01 4.46264561e-02-1.53792779e-05 2.39980861e-09-1.39724887e-13    2
-7.36287238e+04-1.67457676e+02-2.34342212e-01 1.38766838e-01-1.04003274e-04    3
 4.11720893e-08-6.75354155e-12-6.02546784e+04 4.14912366e+01                   4
C10H20     4/25/ 7 THERMC  10H  20    0    0G   300.000  5000.000 1392.000     1
 3.04028428e+01 4.44259204e-02-1.50962922e-05 2.33376420e-09-1.35006428e-13    2
-3.20390650e+04-1.30100915e+02-1.90493591e+00 1.15828091e-01-7.43158977e-05    3
 2.42878955e-08-3.21121574e-12-2.03918845e+04 4.48898726e+01                   4
C6H11CHO   1/29/ 7 THERMC   7H  12O   1    0G   300.000  5000.000 1389.000     1
 2.37585355E+01 2.60071535E-02-8.70226240E-06 1.33368395E-09-7.67899026E-14    2
-3.09914937E+04-9.60007097E+01-9.92863740E-02 8.34775014E-02-6.22544098E-05    3
 2.43060424E-08-3.89470907E-12-2.28849944E+04 3.15081061E+01                   4
MD5DJ      6/ 4/ 7      C  11H  19O   2    0G   300.000  5000.000 1384.000     1
 3.69577694E+01 4.43169088E-02-1.51163911E-05 2.34227149E-09-1.35755774E-13    2
-5.55347865E+04-1.61345427E+02 6.35312729E-01 1.25146339E-01-8.31098185E-05    3
 2.81896151E-08-3.90465778E-12-4.24744952E+04 3.52331265E+01                   4
MD5D       1/26/ 7 THERMC  11H  20O   2    0G   300.000  5000.000 1384.000     1
 3.74112533E+01 4.58948435E-02-1.56057696E-05 2.41315080E-09-1.39673864E-13    2
-7.36971925E+04-1.62545741E+02 9.37241013E-01 1.26885097E-01-8.36053178E-05    3
 2.82312118E-08-3.90359926E-12-6.05539595E+04 3.49335674E+01                   4
MD5DJO2    8/ 8/ 7 THERMC  11H  19O   4    0G   300.000  5000.000 1384.000     1
 4.08250881E+01 4.51480522E-02-1.54094657E-05 2.38852455E-09-1.38453033E-13    2
-7.02811900E+04-1.73211848E+02 4.64235116E+00 1.26446820E-01-8.51215061E-05    3
 2.97225853E-08-4.29956575E-12-5.73104555E+04 2.23985447E+01                   4
MD5DOOHJ   8/ 8/ 7 THERMC  11H  19O   4    0G   300.000  5000.000 1378.000     1
 4.45088364E+01 4.13012467E-02-1.46490079E-05 2.33326940E-09-1.37710811E-13    2
-6.54952153E+04-1.91898238E+02 5.26510676E+00 1.23824034E-01-7.79614778E-05    3
 2.31831784E-08-2.58009382E-12-5.09133399E+04 2.21817405E+01                   4
MD5Dket    8/10/ 7 THERMC  11H  18O   5    0G   300.000  5000.000 1389.000     1
 4.26007736E+01 4.43524450E-02-1.49701670E-05 2.29962187E-09-1.32473257E-13    2
-1.02733955E+05-1.80290508E+02 3.94587478E+00 1.38858274E-01-1.05315537E-04    3
 4.24097859E-08-7.06295651E-12-8.96638729E+04 2.59333379E+01                   4
O2MD5DOOH   8/ 9/ 7     C  11H  19O   6    0G   300.000  5000.000 1391.000     1
 4.63826697E+01 4.49359496E-02-1.51091420E-05 2.31667969E-09-1.33321404E-13    2
-8.42769952E+04-1.95335656E+02 4.21314952E+00 1.51540166E-01-1.20872083E-04    3
 5.09854645E-08-8.80547114E-12-7.03872232E+04 2.83647813E+01                   4
C6H13CHO   1/29/ 7 THERMC   7H  14O   1    0G   300.000  5000.000 1381.000     1
 2.31899441e+01 3.11692720e-02-1.05262433e-05 1.62190319e-09-9.36720960e-14    2
-4.39043799e+04-9.23523416e+01 1.45997764e+00 7.67299709e-02-4.55256934e-05    3
 1.32535582e-08-1.48906368e-12-3.57890508e+04 2.62800964e+01                   4
O2MDOOH    3/ 1/ 7 THERMC  11H  21O   6    0G   300.000  5000.000 1385.000     1
 5.14092689e+01 4.41229432e-02-1.50197478e-05 2.35342372e-09-1.37802812e-13    2
-9.95887163e+04-2.25974358e+02 3.58062937e+00 1.56550293e-01-1.16513862e-04    3
 4.43376879e-08-6.86031001e-12-8.30646182e+04 3.06279328e+01                   4
C2H3CO     6/26/95 THERMC   3H   3O   1    0G   300.000  5000.000 1393.000     1
 9.99505311E+00 7.34623223E-03-2.56370222E-06 4.03462270E-10-2.36317330E-14    2
 4.00522160E+03-2.67674022E+01 1.05143589E+00 3.06932973E-02-2.65560368E-05    3
 1.18183987E-08-2.11589812E-12 6.87879551E+03 2.04173489E+01                   4
MP2DMJ    12/ 9/ 6      C   4H   5O   2    0G   300.000  5000.000 1391.000     1
 1.68847567E+01 1.11178481E-02-3.92616850E-06 6.21898660E-10-3.64954634E-14    2
-2.01393309E+04-6.22634480E+01 3.33358736E+00 4.52872230E-02-3.75332781E-05    3
 1.58798086E-08-2.71244352E-12-1.56896797E+04 9.61623922E+00                   4
MP3J       2/15/ 7 THERMC   4H   7O   2    0G   300.000  5000.000 1385.000     1
 1.39675899e+01 1.84327888e-02-6.15409917e-06 9.35300632e-10-5.34407880e-14    2
-3.35844249e+04-4.38102056e+01 3.88501954e+00 3.98316416e-02-2.32542928e-05    3
 7.12054932e-09-9.19086271e-13-2.98078584e+04 1.12039846e+01                   4
MP2D       1/26/ 7 THERMC   4H   6O   2    0G   300.000  5000.000 1391.000     1
 1.39328766e+01 1.63953722e-02-5.41101810e-06 8.17304314e-10-4.65384617e-14    2
-4.35817016e+04-4.43946639e+01 1.77047626e+00 4.58371111e-02-3.31861252e-05    3
 1.29603705e-08-2.11172231e-12-3.94430531e+04 2.05902591e+01                   4
MDJ        2/15/ 7      C  11H  21O   2    0G   300.000  5000.000 1384.000     1
 3.96033083E+01 4.66552846E-02-1.59277239E-05 2.46961956E-09-1.43198604E-13    2
-6.72542573E+04-1.74712739E+02 1.41631455E+00 1.31676631E-01-8.75719484E-05    3
 2.97991006E-08-4.15008514E-12-5.35198752E+04 3.19549507E+01                   4
MD         1/24/ 7 THERMC  11H  22O   2    0G   300.000  5000.000 1382.000     1
 3.93230373E+01 4.88368389E-02-1.66923510E-05 2.59065840E-09-1.50309877E-13    2
-8.85441006E+04-1.73932688E+02 1.76901386E+00 1.29360919E-01-8.08243357E-05    3
 2.51676921E-08-3.12062272E-12-7.47104475E+04 3.04352079E+01                   4
MDJO2      2/14/ 7 THERMC  11H  21O   4    0G   300.000  5000.000 1384.000     1
 4.47511546E+01 4.60761606E-02-1.58646199E-05 2.47697791E-09-1.44328342E-13    2
-8.48576453E+04-1.96808166E+02 1.88850422E+00 1.43900629E-01-1.01026179E-04    3
 3.62851199E-08-5.33076088E-12-6.97138776E+04 3.42606820E+01                   4
MDOOHJ     2/16/ 7      C  11H  21O   4    0G   300.000  5000.000 1379.000     1
 4.84318393E+01 4.22360970E-02-1.51081192E-05 2.42247300E-09-1.43633858E-13    2
-8.00701809E+04-2.15476845E+02 2.51730566E+00 1.41266028E-01-9.38622597E-05    3
 2.97497856E-08-3.61331902E-12-6.33180809E+04 3.40127487E+01                   4
MDket      3/ 5/ 7 THERMC  11H  20O   5    0G   300.000  5000.000 1383.000     1
 4.48941382e+01 4.69640139e-02-1.59734832e-05 2.48509026e-09-1.44606563e-13    2
-1.11990812e+05-1.91574426e+02 3.86904272e+00 1.38945169e-01-9.42178812e-05    3
 3.26947932e-08-4.63842292e-12-9.73091185e+04 3.02107771e+01                   4
CH3OCO     8/31/99 THERMC   2H   3O   2    0G   300.000  5000.000 1601.000     1
 9.73659803E+00 7.42432713E-03-2.65641779E-06 4.25031143E-10-2.51824924E-14    2
-2.37525535E+04-2.35950854E+01 4.16215406E+00 1.38037511E-02-3.08486109E-07    3
-4.56430814E-09 1.46909632E-12-2.11640115E+04 8.68327214E+00                   4
C5H11CO    2/29/96      C   6H  11O   1     G   300.000  5000.000              1
 1.94783812E+01 2.50466029E-02-8.54861346E-06 1.32557944E-09-7.68503296E-14    2
-2.07923937E+04-7.21995578E+01 2.14479069E+00 6.17863563E-02-3.74134690E-05    3
 1.13283795E-08-1.36917698E-12-1.43451172E+04 2.23128045E+01                   4
HE                120186HE  1               G  0300.00   5000.00  1000.00      1
 0.02500000E+02 0.00000000E+00 0.00000000E+00 0.00000000E+00 0.00000000E+00    2
-0.07453750E+04 0.09153489E+01 0.02500000E+02 0.00000000E+00 0.00000000E+00    3
 0.00000000E+00 0.00000000E+00-0.07453750E+04 0.09153488E+01                   4
AR                120186AR  1               G   300.000  5000.000  1000.0      1
 0.02500000E+02 0.00000000E+00 0.00000000E+00 0.00000000E+00 0.00000000E+00    2
-0.07453750E+04 0.04366000E+02 0.02500000E+02 0.00000000E+00 0.00000000E+00    3
 0.00000000E+00 0.00000000E+00-0.07453750E+04 0.04366000E+02                   4
H          8/12/99 THERMH   1O   0    0    0G   300.000  5000.000 1000.000     1
 2.50104422E+00 0.00000000E+00 0.00000000E+00 0.00000000E+00 0.00000000E+00    2
 2.54747466E+04-4.65341317E-01 2.50104422E+00 0.00000000E+00 0.00000000E+00    3
 0.00000000E+00 0.00000000E+00 2.54747466E+04-4.65341317E-01                   4
H2                121286H   2               G  0300.00   5000.00  1000.00      1
 0.02991423E+02 0.07000644E-02-0.05633829E-06-0.09231578E-10 0.01582752E-13    2
-0.08350340E+04-0.01355110E+02 0.03298124E+02 0.08249442E-02-0.08143015E-05    3
-0.09475434E-09 0.04134872E-11-0.01012521E+05-0.03294094E+02                   4
O                 120186O   1               G  0300.00   5000.00  1000.00      1
 0.02542060E+02-0.02755062E-03-0.03102803E-07 0.04551067E-10-0.04368052E-14    2
 0.02923080E+06 0.04920308E+02 0.02946429E+02-0.01638166E-01 0.02421032E-04    3
-0.01602843E-07 0.03890696E-11 0.02914764E+06 0.02963995E+02                   4
O2                121386O   2               G  0300.00   5000.00  1000.00      1
 0.03697578E+02 0.06135197E-02-0.01258842E-05 0.01775281E-09-0.01136435E-13    2
-0.01233930E+05 0.03189166E+02 0.03212936E+02 0.01127486E-01-0.05756150E-05    3
 0.01313877E-07-0.08768554E-11-0.01005249E+05 0.06034738E+02                   4
OH         8/12/99 THERMH   1O   1    0    0G   300.000  5000.000 1357.000     1
 2.62599754E+00 1.31992406E-03-3.59724670E-07 4.25630800E-11-1.82048016E-15    2
 4.12085374E+03 7.10667307E+00 3.43586219E+00 2.02235804E-04-1.13546412E-07    3
 2.42445149E-10-7.43651031E-14 3.74321252E+03 2.45014127E+00                   4
H2O                20387H   2O   1          G  0300.00   5000.00  1000.00      1
 0.02672146E+02 0.03056293E-01-0.08730260E-05 0.01200996E-08-0.06391618E-13    2
-0.02989921E+06 0.06862817E+02 0.03386842E+02 0.03474982E-01-0.06354696E-04    3
 0.06968581E-07-0.02506588E-10-0.03020811E+06 0.02590233E+02                   4
N2                121286N   2               G  0300.00   5000.00  1000.00      1
 0.02926640E+02 0.01487977E-01-0.05684761E-05 0.01009704E-08-0.06753351E-13    2
-0.09227977E+04 0.05980528E+02 0.03298677E+02 0.01408240E-01-0.03963222E-04    3
 0.05641515E-07-0.02444855E-10-0.01020900E+05 0.03950372E+02                   4
CO                121286C   1O   1          G  0300.00   5000.00  1000.00      1
 0.03025078E+02 0.01442689E-01-0.05630828E-05 0.01018581E-08-0.06910952E-13    2
-0.01426835E+06 0.06108218E+02 0.03262452E+02 0.01511941E-01-0.03881755E-04    3
 0.05581944E-07-0.02474951E-10-0.01431054E+06 0.04848897E+02                   4
HCO               121286H   1C   1O   1     G  0300.00   5000.00  1000.00      1
 0.03557271E+02 0.03345573E-01-0.01335006E-04 0.02470573E-08-0.01713851E-12    2
 0.03916324E+05 0.05552299E+02 0.02898330E+02 0.06199147E-01-0.09623084E-04    3
 0.01089825E-06-0.04574885E-10 0.04159922E+05 0.08983614E+02                   4
CO2                     C   1O   2          G  0300.00   5000.00  1000.00      1
 0.04453623E+02 0.03140169E-01-0.01278411E-04 0.02393997E-08-0.01669033E-12    2
-0.04896696E+06-0.09553959E+01 0.02275725E+02 0.09922072E-01-0.01040911E-03    3
 0.06866687E-07-0.02117280E-10-0.04837314E+06 0.01018849E+03                   4
CH3               121286C   1H   3          G  0300.00   5000.00  1000.00      1
 0.02844052E+02 0.06137974E-01-0.02230345E-04 0.03785161E-08-0.02452159E-12    2
 0.01643781E+06 0.05452697E+02 0.02430443E+02 0.01112410E+00-0.01680220E-03    3
 0.01621829E-06-0.05864953E-10 0.01642378E+06 0.06789794E+02                   4
CH4               121286C   1H   4          G  0300.00   5000.00  1000.00      1
 0.01683479E+02 0.01023724E+00-0.03875129E-04 0.06785585E-08-0.04503423E-12    2
-0.01008079E+06 0.09623395E+02 0.07787415E+01 0.01747668E+00-0.02783409E-03    3
 0.03049708E-06-0.01223931E-09-0.09825229E+05 0.01372219E+03                   4
HO2        8/12/99 THERMH   1O   2    0    0G   300.000  5000.000 1390.000     1
 4.10547423E+00 2.38452835E-03-8.06347989E-07 1.24191723E-10-7.16400108E-15    2
 3.98127689E+02 3.12515836E+00 3.18310656E+00 3.66767950E-03-9.32385122E-07    3
-3.25852919E-10 1.51139912E-13 8.09181013E+02 8.39371099E+00                   4
H2O2              120186H   2O   2          G  0300.00   5000.00  1000.00      1
 0.04573167E+02 0.04336136E-01-0.01474689E-04 0.02348904E-08-0.01431654E-12    2
-0.01800696E+06 0.05011370E+01 0.03388754E+02 0.06569226E-01-0.01485013E-05    3
-0.04625806E-07 0.02471515E-10-0.01766315E+06 0.06785363E+02                   4
CH3O              121686C   1H   3O   1     G  0300.00   3000.00  1000.00      1
 0.03770800E+02 0.07871497E-01-0.02656384E-04 0.03944431E-08-0.02112616E-12    2
 0.01278325E+04 0.02929575E+02 0.02106204E+02 0.07216595E-01 0.05338472E-04    3
-0.07377636E-07 0.02075611E-10 0.09786011E+04 0.01315218E+03                   4
C2H4              121286C   2H   4          G  0300.00   5000.00  1000.00      1
 0.03528419E+02 0.01148518E+00-0.04418385E-04 0.07844601E-08-0.05266848E-12    2
 0.04428289E+05 0.02230389E+02-0.08614880E+01 0.02796163E+00-0.03388677E-03    3
 0.02785152E-06-0.09737879E-10 0.05573046E+05 0.02421149E+03                   4
C2H2              121386C   2H   2          G  0300.00   5000.00  1000.00      1
 0.04436770E+02 0.05376039E-01-0.01912817E-04 0.03286379E-08-0.02156710E-12    2
 0.02566766E+06-0.02800338E+02 0.02013562E+02 0.01519045E+00-0.01616319E-03    3
 0.09078992E-07-0.01912746E-10 0.02612444E+06 0.08805378E+02                   4
C2H3               12787C   2H   3          G  0300.00   5000.00  1000.00      1
 0.05933468E+02 0.04017746E-01-0.03966740E-05-0.01441267E-08 0.02378644E-12    2
 0.03185435E+06-0.08530313E+02 0.02459276E+02 0.07371476E-01 0.02109873E-04    3
-0.01321642E-07-0.01184784E-10 0.03335225E+06 0.01155620E+03                   4
CH3OH             121686C   1H   4O   1     G  0300.00   5000.00  1000.00      1
 0.04029061E+02 0.09376593E-01-0.03050254E-04 0.04358793E-08-0.02224723E-12    2
-0.02615791E+06 0.02378196E+02 0.02660115E+02 0.07341508E-01 0.07170051E-04    3
-0.08793194E-07 0.02390570E-10-0.02535348E+06 0.01123263E+03                   4
CH2OH             120186H   3C   1O   1     G  0250.00   4000.00  1000.00      1
 0.06327520E+02 0.03608271E-01-0.03201547E-05-0.01938750E-08 0.03509705E-12    2
-0.04474509E+05-0.08329366E+02 0.02862628E+02 0.01001527E+00-0.05285436E-05    3
-0.05138540E-07 0.02246041E-10-0.03349679E+05 0.01039794E+03                   4
CH2CO             121686C   2H   2O   1     G  0300.00   5000.00  1000.00      1
 0.06038817E+02 0.05804840E-01-0.01920954E-04 0.02794485E-08-0.01458868E-12    2
-0.08583402E+05-0.07657581E+02 0.02974971E+02 0.01211871E+00-0.02345046E-04    3
-0.06466685E-07 0.03905649E-10-0.07632637E+05 0.08673553E+02                   4
C3H4              L12/92C   3H   4O   0N   0G   200.000  6000.000 1000.00      1
 6.31694869E+00 1.11336262E-02-3.96289018E-06 6.35633775E-10-3.78749885E-14    2
 2.01174617E+04-1.09718862E+01 2.61307487E+00 1.21223371E-02 1.85405400E-05    3
-3.45258475E-08 1.53353389E-11 2.15415642E+04 1.02503319E+01 2.29622672E+04    4
C3H5              BUR 92C   3H   5O   0N   0G   200.000  6000.000 1000.00      1
 6.54761132E+00 1.33152246E-02-4.78333100E-06 7.71949814E-10-4.61930808E-14    2
 1.72714707E+04-9.27486841E+00 3.78794693E+00 9.48414335E-03 2.42343368E-05    3
-3.65604010E-08 1.48592356E-11 1.86261218E+04 7.82822499E+00 2.03259122E+04    4
C3H6       5/27/97 THERMC   3H   6    0    0G   300.000  5000.000 1388.000     1
 8.01595958E+00 1.37023634E-02-4.66249733E-06 7.21254402E-10-4.17370126E-14    2
-1.87821271E+03-2.00160668E+01 3.94615444E-01 2.89107662E-02-1.54886808E-05    3
 3.88814209E-09-3.37890352E-13 1.06688164E+03 2.19003736E+01                   4
C3H7              120186C   3H   7          G  0300.00   5000.00  1000.00      1
 0.08063369E+02 0.01574488E+00-0.05182392E-04 0.07477245E-08-0.03854422E-12    2
 0.05313871E+05-0.02192647E+03 0.01713300E+02 0.02542616E+00 0.01580808E-04    3
-0.01821286E-06 0.08827710E-10 0.07535809E+05 0.01297901E+03                   4
NO                121286N   1O   1          G  0300.00   5000.00  1000.00      1
 0.03245435E+02 0.12691383E-02-0.05015890E-05 0.09169283E-09-0.06275419E-13    2
 0.09800840E+05 0.06417293E+02 0.03376541E+02 0.12530634E-02-0.03302750E-04    3
 0.05217810E-07-0.02446262E-10 0.09817961E+05 0.05829590E+02                   4
NO2               121286N   1O   2          G  0300.00   5000.00  1000.00      1
 0.04682859E+02 0.02462429E-01-0.10422585E-05 0.01976902E-08-0.13917168E-13    2
 0.02261292E+05 0.09885985E+01 0.02670600E+02 0.07838500E-01-0.08063864E-04    3
 0.06161714E-07-0.02320150E-10 0.02896290E+05 0.11612071E+02                   4
N2O               121286N   2O   1          G  0300.00   5000.00  1000.00      1
 0.04718977E+02 0.02873713E-01-0.11974958E-05 0.02250551E-08-0.15753370E-13    2
 0.08165811E+05-0.16572504E+01 0.02543057E+02 0.09492193E-01-0.09792775E-04    3
 0.06263844E-07-0.01901825E-10 0.08765100E+05 0.09511222E+02                   4
N                 120186N   1               G  0300.00   5000.00  1000.00      1
 0.02450268E+02 0.10661458E-03-0.07465337E-06 0.01879652E-09-0.10259839E-14    2
 0.05611604E+06 0.04448758E+02 0.02503071E+02-0.02180018E-03 0.05420529E-06    3
-0.05647560E-09 0.02099904E-12 0.05609890E+06 0.04167566E+02                   4
C2H5                    C   2H   5          G  0300.00   5000.00  1000.00      1
 0.07190480E+02 0.06484077E-01-0.06428065E-05-0.02347879E-08 0.03880877E-12    2
 0.01067455E+06-0.01478089E+03 0.02690702E+02 0.08719133E-01 0.04419839E-04    3
 0.09338703E-08-0.03927773E-10 0.01287040E+06 0.01213820E+03                   4
CH2CO             121686C   2H   2O   1     G  0300.00   5000.00  1000.00      1
 0.06038817E+02 0.05804840E-01-0.01920954E-04 0.02794485E-08-0.01458868E-12    2
-0.08583402E+05-0.07657581E+02 0.02974971E+02 0.01211871E+00-0.02345046E-04    3
-0.06466685E-07 0.03905649E-10-0.07632637E+05 0.08673553E+02                   4
HCCO               32387H   1C   2O   1     G  0300.00   4000.00  1000.00      1
 0.06758073E+02 0.02000400E-01-0.02027607E-05-0.01041132E-08 0.01965165E-12    2
 0.01901513E+06-0.09071262E+02 0.05047965E+02 0.04453478E-01 0.02268283E-05    3
-0.01482095E-07 0.02250742E-11 0.01965892E+06 0.04818439E+01                   4
C12H23             2/73 C  12H  23          G  0100.00   5000.00               1
 2.48802010E+01 7.82500480E-02-3.15509730E-05 5.78789000E-09-3.98279680E-13    2
-4.31106840E+04-9.36552550E+01 2.08692170E+00 1.33149650E-01-8.11574520E-05    3
 2.94092860E-08-6.51952130E-12-3.59128140E+04 2.73552890E+01-3.00344960E+04    4
CH                121286C   1H   1          G  0300.00   5000.00  1000.00      1
 0.02196223E+02 0.02340381E-01-0.07058201E-05 0.09007582E-09-0.03855040E-13    2
 0.07086723E+06 0.09178373E+02 0.03200202E+02 0.02072875E-01-0.05134431E-04    3
 0.05733890E-07-0.01955533E-10 0.07045259E+06 0.03331587E+02                   4
C12H22                  C  12H  22          G    300.00   4000.00 1392.00      1
 .362943970E+02 .488870789E-01-.165740715E-04 .255852468E-08-.147868438E-12    2
-.229987583E+05-.159907963E+03-.329755440E+01 .140713318E+00-.978288195E-04    3
 .352594898E-07-.520523450E-11-.920475977E+04 .529246931E+02                   4
C12H21OOH               C  12H  22O   2     G    298.15   5000.00 1000.00      1
 2.72033532E+00 1.26724515E-01-5.65612605E-05-6.33058878E-09 9.83998571E-12    2
-4.24023647E+04 3.24602457E+01 3.17282625E+01 6.57676191E-02-2.47588062E-05    3
 4.36737771E-09-2.92802346E-13-5.21805961E+04-1.23815892E+02                   4
C12ket                  C  12H  21O   3     G    298.15   5000.00 1000.00      1
 2.72033532E+00 1.26724515E-01-5.65612605E-05-6.33058878E-09 9.83998571E-12    2
-4.24023647E+04 3.24602457E+01 3.17282625E+01 6.57676191E-02-2.47588062E-05    3
 4.36737771E-09-2.92802346E-13-5.21805961E+04-1.23815892E+02                   4
OOC12H21OOH             C  12H  22O   4     G    298.15   5000.00 1000.00      1
 2.72033532E+00 1.26724515E-01-5.65612605E-05-6.33058878E-09 9.83998571E-12    2
-4.24023647E+04 3.24602457E+01 3.17282625E+01 6.57676191E-02-2.47588062E-05    3
 4.36737771E-09-2.92802346E-13-5.21805961E+04-1.23815892E+02                   4
CH2O                    C   1H   2O   1     G    300.00   4000.00 1000.00      1
 .299560858E+01 .668132120E-02-.262895400E-05 .473715290E-09-.321251710E-13    2
-.153203666E+05 .691256052E+01 .165273100E+01 .126314400E-01-.188816790E-04    3
 .205003110E-07-.841323710E-11-.148654000E+05 .137848200E+02                   4
C2H                20387C   2H   1          G  0300.00   5000.00  1000.00      1
 0.04427688E+02 0.02216268E-01-0.06048952E-05 0.09882517E-09-0.07351179E-13    2
 0.06590415E+06-0.11994418E+01 0.03050667E+02 0.06051674E-01-0.04956634E-04    3
 0.02804159E-07-0.08193332E-11 0.06630011E+06 0.05954361E+02                   4
C12H21                  C  12H  21          G    300.00   4000.00 1392.00      1
 .362943970E+02 .488870789E-01-.165740715E-04 .255852468E-08-.147868438E-12    2
-.229987583E+05-.159907963E+03-.329755440E+01 .140713318E+00-.978288195E-04    3
 .352594898E-07-.520523450E-11-.920475977E+04 .529246931E+02                   4
C12H22O2                C  12H  22O   2     G    298.15   5000.00 1000.00      1
 2.72033532E+00 1.26724515E-01-5.65612605E-05-6.33058878E-09 9.83998571E-12    2
-4.24023647E+04 3.24602457E+01 3.17282625E+01 6.57676191E-02-2.47588062E-05    3
 4.36737771E-09-2.92802346E-13-5.21805961E+04-1.23815892E+02                   4
CH2               L S/93C   1H   2          G   200.000  3500.000  1000.000    1
 2.87410113E+00 3.65639292E-03-1.40894597E-06 2.60179549E-10-1.87727567E-14    2
 4.62636040E+04 6.17119324E+00 3.76267867E+00 9.68872143E-04 2.79489841E-06    3
-3.85091153E-09 1.68741719E-12 4.60040401E+04 1.56253185E+00                   4
END
