/*--------------------------------*- C++ -*----------------------------------*\
| =========                 |                                                 |
| \\      /  F ield         | OpenFOAM: The Open Source CFD Toolbox           |
|  \\    /   O peration     | Version:  2.3.0                                 |
|   \\  /    A nd           | Web:      www.OpenFOAM.org                      |
|    \\/     M anipulation  |                                                 |
\*---------------------------------------------------------------------------*/
FoamFile
{
    version     2.0;
    format      ascii;
    class       scalarField;
    object      values;
}
// * * * * * * * * * * * * * * * * * * * * * * * * * * * * * * * * * * * * * //


// Data on points
2340
(
5.05086E-05
5.05076E-05
0.000053961
0.000224998
5.39582E-05
0.000225034
5.72556E-05
0.000239732
0.000416622
5.72498E-05
0.00023984
0.000416698
6.07564E-05
0.000261544
0.00043761
0.000585098
6.07636E-05
0.000261748
0.00043784
0.0005852
0.000062507
0.000284008
0.000471386
0.000610808
0.000742106
6.25256E-05
0.000284034
0.000471738
0.000611082
0.00074221
6.18304E-05
0.000301466
0.000505014
0.000650804
0.00077033
0.000885116
6.24246E-05
0.00030151
0.000505044
0.000651144
0.000770586
0.000885202
6.22986E-05
0.000318528
0.000531752
0.000691124
0.000812916
0.00091317
0.0010134
6.22058E-05
0.000319004
0.000531706
0.000691164
0.000813196
0.000913374
0.00101346
0.000062391
0.000332052
0.00055267
0.000724682
0.000856806
0.00095502
0.00103963
0.00112583
6.23876E-05
0.000332146
0.0005529
0.000724588
0.000856852
0.000955224
0.00103977
0.00112587
6.19718E-05
0.00034014
0.000568448
0.000749812
0.000893824
0.000999194
0.00107881
0.00114941
0.00122246
0.000061969
0.000340298
0.000568748
0.000749866
0.000893746
0.000999246
0.00107895
0.00114951
0.00122249
0.000063348
0.000348494
0.00057962
0.000768766
0.000922086
0.00103743
0.00112083
0.0011849
0.00124334
0.00130359
0.000063343
0.00034866
0.000579818
0.000768958
0.000922082
0.00103738
0.00112088
0.00118499
0.0012434
0.00130361
0.000064653
0.000363388
0.000590082
0.000783348
0.000943544
0.00106744
0.0011583
0.00122348
0.00127497
0.00132235
0.00136931
6.46516E-05
0.000363444
0.000590272
0.00078353
0.000943648
0.00106743
0.00115828
0.00122351
0.00127503
0.00132239
0.00136932
0.00006565
0.000379706
0.00060636
0.000796528
0.000960396
0.00109053
0.00118851
0.00125877
0.00130972
0.00135067
0.00138733
0.00141841
0.00006565
0.000379772
0.000606476
0.00079671
0.000960538
0.00109059
0.0011885
0.00125876
0.00130975
0.0013507
0.00138736
0.00141842
6.63768E-05
0.000391622
0.000624204
0.000813072
0.0009753
0.00110871
0.0012121
0.00128799
0.00134214
0.0013819
0.00141362
0.00143866
0.00145197
6.63774E-05
0.000391632
0.000624282
0.000813202
0.000975452
0.00110882
0.00121214
0.00128799
0.00134215
0.00138192
0.00141364
0.00143868
6.70578E-05
0.000400736
0.000639048
0.00083084
0.000991254
0.00112436
0.00123071
0.00131114
0.0013696
0.00141147
0.00144233
0.00146506
0.00148234
0.00148234
6.70612E-05
0.000400738
0.000639066
0.000830914
0.00099137
0.00112448
0.00123078
0.00131117
0.00136961
0.00141148
0.00144234
0.00146507
6.76252E-05
0.000406482
0.000650522
0.000846676
0.00100792
0.00113952
0.00124624
0.00132939
0.00139171
0.00143703
0.00146971
0.00149278
0.00151114
0.00151929
0.00151115
6.76284E-05
0.000406476
0.000650526
0.0008467
0.00100799
0.00113961
0.00124632
0.00132944
0.00139173
0.00143704
0.00146972
0.00149279
6.76288E-05
0.000408596
0.00065803
0.000859232
0.00102318
0.00115453
0.00126029
0.00134426
0.00140917
0.00145798
0.00149387
0.00151919
0.0015389
0.00155083
0.00155084
0.00153891
6.76258E-05
0.000408586
0.000658028
0.00085924
0.00102321
0.00115458
0.00126035
0.00134431
0.0014092
0.001458
0.00149388
0.0015192
6.70624E-05
0.00040859
0.000661642
0.0008678
0.00103551
0.00116826
0.00127343
0.00135702
0.00142313
0.00147469
0.00151417
0.00154306
0.00156525
0.00157971
0.00158459
0.00157971
0.00156525
6.70586E-05
0.000408588
0.000661642
0.000867804
0.00103552
0.00116829
0.00127347
0.00135707
0.00142316
0.00147471
0.00151418
0.00154307
6.63776E-05
0.00040648
0.000661642
0.000872166
0.00104413
0.00117952
0.00128523
0.00136835
0.00143466
0.00148798
0.00153075
0.00156391
0.0015899
0.00160732
0.00161564
0.00161564
0.00160732
0.0015899
6.63772E-05
0.000406476
0.00066164
0.00087217
0.00104414
0.00117953
0.00128525
0.00136838
0.00143469
0.001488
0.00153077
0.00156392
6.56504E-05
0.00040074
0.000658028
0.000872168
0.0010486
0.00118749
0.00129491
0.00137822
0.00144443
0.0014987
0.00154414
0.00158167
0.00161263
0.00163433
0.00164625
0.00164996
0.00164625
0.00163434
0.00161264
6.56498E-05
0.000400718
0.000658028
0.000872172
0.00104861
0.00118751
0.00129492
0.00137824
0.00144446
0.00149872
0.00154416
0.00158168
6.46528E-05
0.000391626
0.000650518
0.000867802
0.0010486
0.00119165
0.0013018
0.00138623
0.00145267
0.00150748
0.00155495
0.00159665
0.00163331
0.00166085
0.00167773
0.00168527
0.00168527
0.00167774
0.00166085
0.00163332
0.000064652
0.000391604
0.000650516
0.000867808
0.00104861
0.00119166
0.00130181
0.00138625
0.00145269
0.0015075
0.00155497
0.00159666
0.000063347
0.000379706
0.00063904
0.000859228
0.00104414
0.00119165
0.00130539
0.00139192
0.00145923
0.00151465
0.0015637
0.00160909
0.00165181
0.00168656
0.00171026
0.00172293
0.00172672
0.00172293
0.00171027
0.00168656
0.00165182
6.33424E-05
0.000379688
0.000639044
0.00085924
0.00104415
0.00119166
0.0013054
0.00139193
0.00145924
0.00151466
0.00156371
0.0016091
0.000061969
0.000363406
0.00062419
0.00084667
0.00103551
0.0011875
0.00130539
0.00139488
0.00146384
0.00152023
0.00157069
0.0016193
0.00166788
0.00171065
0.00174293
0.00176246
0.00177098
0.00177098
0.00176246
0.00174293
0.00171066
0.00166789
0.000061967
0.000363336
0.000624204
0.000846688
0.00103553
0.00118751
0.00130541
0.00139489
0.00146385
0.00152024
0.0015707
0.00161931
0.000062589
0.000348514
0.000606368
0.000830834
0.00102318
0.00117953
0.0013018
0.00139488
0.00146623
0.00152409
0.00157603
0.00162747
0.00168144
0.00173212
0.00177373
0.0018013
0.00181532
0.00181939
0.00181532
0.0018013
0.00177373
0.00173212
0.00168145
6.23362E-05
0.00034852
0.000606362
0.000830862
0.00102321
0.00117955
0.00130182
0.00139489
0.00146624
0.0015241
0.00157604
0.00162748
6.23674E-05
0.000340324
0.000590102
0.00081309
0.00100793
0.00116828
0.00129492
0.00139193
0.00146624
0.00152608
0.00157968
0.00163367
0.00169239
0.00175026
0.00180043
0.00183533
0.00185401
0.00186129
0.00186129
0.00185401
0.00183533
0.00180043
0.00175026
0.0016924
6.19554E-05
0.000340516
0.000590134
0.000813114
0.00100796
0.0011683
0.00129494
0.00139193
0.00146624
0.00152609
0.00157969
0.00163367
6.19882E-05
0.0003321
0.00057974
0.000796568
0.000991282
0.00115455
0.00128525
0.00138625
0.00146385
0.00152609
0.00158155
0.00163787
0.00170071
0.00176471
0.00182174
0.00186119
0.0018815
0.00188951
0.0018915
0.0018895
0.00188149
0.00186119
0.00182174
0.00176471
0.00170072
6.21794E-05
0.000332254
0.00057995
0.0007966
0.000991312
0.00115457
0.00128526
0.00138626
0.00146385
0.00152609
0.00158155
0.00163787
6.25192E-05
0.000318926
0.000568622
0.000783432
0.000975348
0.00113955
0.00127346
0.00137824
0.00145925
0.00152411
0.00158156
0.00164001
0.00170634
0.00177548
0.00183748
0.00187848
0.00189708
0.00190357
0.0019055
0.0019055
0.00190357
0.00189708
0.00187848
0.00183748
0.00177548
0.00170634
6.25214E-05
0.00031904
0.000568722
0.000783532
0.000975378
0.00113958
0.00127348
0.00137825
0.00145925
0.0015241
0.00158155
0.00164
6.07644E-05
0.000301508
0.000553028
0.00076886
0.000960452
0.00112441
0.00126033
0.00136838
0.0014527
0.00152025
0.0015797
0.00164001
0.00170918
0.0017826
0.00184834
0.00188895
0.00190468
0.0019092
0.0019106
0.0019109
0.0019106
0.0019092
0.00190468
0.00188894
0.00184834
0.0017826
0.00170918
6.07572E-05
0.00030152
0.00055303
0.000768896
0.000960494
0.00112444
0.00126034
0.00136839
0.00145269
0.00152024
0.00157969
0.00164
5.72586E-05
0.000283976
0.000531788
0.000749994
0.000943598
0.00110876
0.00124629
0.00135706
0.00144447
0.00151467
0.00157606
0.00163789
0.00170919
0.00178617
0.00185505
0.00189496
0.00190813
0.00191141
0.00191245
0.00191283
0.00191283
0.00191245
0.00191141
0.00190812
0.00189496
0.00185505
0.00178616
0.00170918
5.72544E-05
0.000283994
0.000531758
0.000749942
0.000943606
0.00110878
0.0012463
0.00135707
0.00144447
0.00151467
0.00157604
0.00163787
5.39622E-05
0.000261504
0.000504972
0.000724692
0.000922162
0.00109057
0.00123075
0.0013443
0.0014347
0.00150752
0.00157072
0.00163369
0.00170635
0.00178617
0.00185827
0.00189815
0.00190973
0.00191233
0.00191326
0.00191364
0.00191377
0.00191364
0.00191326
0.00191233
0.00190973
0.00189815
0.00185826
0.00178616
0.00170634
0.000053962
0.00026159
0.000505004
0.00072466
0.000922124
0.00109057
0.00123076
0.00134431
0.00143469
0.0015075
0.0015707
0.00163367
5.05086E-05
0.000239718
0.000471314
0.000691076
0.00089382
0.00106747
0.00121213
0.00132943
0.00142317
0.00149873
0.00156373
0.0016275
0.00170074
0.00178262
0.00185828
0.00189954
0.00191045
0.00191277
0.00191365
0.00191407
0.00191425
0.00191425
0.00191406
0.00191365
0.00191277
0.00191045
0.00189953
0.00185826
0.0017826
0.00170072
5.05092E-05
0.00023975
0.000471412
0.000691118
0.000893808
0.00106746
0.00121214
0.00132943
0.00142317
0.00149872
0.00156371
0.00162748
5.05078E-05
0.000224978
0.000437578
0.000650716
0.000856758
0.00103742
0.00118853
0.00131117
0.0014092
0.00148801
0.00155499
0.00161934
0.00169242
0.0017755
0.00185506
0.00189954
0.00191074
0.00191298
0.00191387
0.00191431
0.00191455
0.00191461
0.00191455
0.00191431
0.00191387
0.00191298
0.00191074
0.00189954
0.00185505
0.00177548
0.0016924
5.05092E-05
0.000224992
0.00043763
0.000650808
0.000856806
0.00103743
0.00118853
0.00131118
0.0014092
0.00148801
0.00155497
0.00161932
5.39594E-05
0.00022499
0.000416568
0.000610752
0.000812834
0.000999152
0.00115829
0.001288
0.00139173
0.00147472
0.00154418
0.00160913
0.00168147
0.00176474
0.00184836
0.00189816
0.00191074
0.00191307
0.00191399
0.00191448
0.00191475
0.00191487
0.00191487
0.00191475
0.00191448
0.00191399
0.00191307
0.00191074
0.00189815
0.00184834
0.00176471
0.00168145
5.39614E-05
0.000224992
0.000416586
0.000610814
0.000812918
0.000999202
0.00115831
0.00128801
0.00139174
0.00147472
0.00154416
0.00160911
5.72542E-05
0.000239726
0.000416596
0.000585012
0.000770252
0.000954944
0.00112079
0.00125876
0.00136961
0.001458
0.00153078
0.00159668
0.00166792
0.00175029
0.0018375
0.00189497
0.00191045
0.00191308
0.00191405
0.00191458
0.00191489
0.00191505
0.0019151
0.00191505
0.00191489
0.00191458
0.00191405
0.00191307
0.00191045
0.00189496
0.00183748
0.00175027
0.0016679
5.72552E-05
0.000239746
0.000416588
0.000585038
0.000770322
0.000955024
0.00112084
0.00125879
0.00136963
0.00145801
0.00153077
0.00159667
6.07608E-05
0.000261564
0.000437618
0.000585052
0.000741996
0.000913082
0.00107874
0.00122344
0.00134213
0.00143704
0.00151419
0.0015817
0.00165184
0.00173214
0.00182177
0.00188896
0.00190973
0.00191298
0.00191405
0.00191463
0.00191498
0.00191518
0.00191527
0.00191527
0.00191518
0.00191498
0.00191463
0.00191405
0.00191298
0.00190973
0.00188895
0.00182175
0.00173213
0.00165183
6.07542E-05
0.000261524
0.000437628
0.000585046
0.000742036
0.000913156
0.00107882
0.00122349
0.00134216
0.00143706
0.00151419
0.00158169
6.30952E-05
0.000284028
0.000471448
0.000610826
0.00074204
0.000884996
0.00103954
0.00118484
0.00130969
0.00141147
0.00149387
0.00156393
0.00163333
0.00171068
0.00180045
0.00187849
0.00190813
0.00191277
0.00191399
0.00191463
0.00191503
0.00191526
0.0019154
0.00191543
0.00191539
0.00191526
0.00191502
0.00191463
0.00191399
0.00191277
0.00190813
0.00187848
0.00180044
0.00171067
0.00163333
6.25124E-05
0.000283978
0.000471368
0.000610828
0.00074205
0.000885048
0.00103961
0.00118491
0.00130974
0.0014115
0.00149389
0.00156393
6.19222E-05
0.000301646
0.000505054
0.000650872
0.000770342
0.000885034
0.00101328
0.00114933
0.00127492
0.00138188
0.0014697
0.00154307
0.00161265
0.00168658
0.00177375
0.00186121
0.00190469
0.00191233
0.00191387
0.00191458
0.00191503
0.0019153
0.00191547
0.00191555
0.00191555
0.00191547
0.0019153
0.00191503
0.00191458
0.00191387
0.00191233
0.00190468
0.0018612
0.00177375
0.00168658
0.00161265
6.16336E-05
0.000301484
0.000504966
0.000650802
0.000770348
0.000885064
0.00101334
0.0011494
0.00127499
0.00138192
0.00146973
0.00154308
6.22532E-05
0.000318686
0.00053184
0.00069117
0.000812974
0.000913166
0.00101331
0.00112572
0.00124327
0.00135062
0.00144231
0.00151919
0.0015899
0.00166086
0.00174294
0.00183534
0.00189709
0.00191142
0.00191365
0.00191448
0.00191498
0.0019153
0.00191551
0.00191562
0.00191566
0.00191562
0.00191551
0.00191531
0.00191498
0.00191448
0.00191365
0.00191141
0.00189709
0.00183535
0.00174295
0.00166087
0.00158992
6.22336E-05
0.000318608
0.000531726
0.00069109
0.000812934
0.000913186
0.00101335
0.00112579
0.00124334
0.00135068
0.00144235
0.00151921
6.21428E-05
0.000331948
0.000552846
0.00072473
0.00085684
0.000955058
0.0010396
0.00112574
0.00122237
0.00132228
0.00141358
0.00149276
0.00156524
0.00163433
0.00171027
0.00180131
0.0018815
0.00190921
0.00191326
0.00191431
0.00191489
0.00191526
0.00191551
0.00191566
0.00191573
0.00191573
0.00191566
0.00191551
0.00191526
0.00191489
0.00191431
0.00191326
0.0019092
0.00188151
0.00180132
0.00171028
0.00163435
0.00156526
0.000062478
0.000332096
0.000552788
0.000724644
0.000856798
0.00095505
0.00103964
0.0011258
0.00122244
0.00132235
0.00141364
0.0014928
6.19646E-05
0.000340148
0.000568412
0.000749904
0.000893848
0.00099922
0.00107883
0.00114938
0.00122238
0.00130351
0.00138728
0.00146503
0.00153888
0.00160731
0.00167773
0.00176246
0.00185401
0.00190357
0.00191245
0.00191407
0.00191475
0.00191518
0.00191547
0.00191566
0.00191576
0.0019158
0.00191577
0.00191566
0.00191547
0.00191518
0.00191475
0.00191407
0.00191245
0.00190357
0.00185403
0.00176248
0.00167775
0.00160734
0.00153892
6.19694E-05
0.000340282
0.000568638
0.000749886
0.0008938
0.000999204
0.00107884
0.00114943
0.00122245
0.00130358
0.00138734
0.00146508
6.33464E-05
0.000348604
0.00057964
0.000768756
0.00092212
0.00103743
0.00112084
0.0011849
0.0012433
0.00130352
0.00136925
0.00143862
0.00151111
0.00157969
0.00164624
0.00172293
0.00181532
0.00188951
0.00191061
0.00191364
0.00191455
0.00191505
0.00191539
0.00191562
0.00191576
0.00191583
0.00191583
0.00191577
0.00191562
0.0019154
0.00191505
0.00191455
0.00191364
0.0019106
0.00188952
0.00181534
0.00172295
0.00164627
0.00157973
0.00151116
6.33464E-05
0.000348512
0.000579726
0.000768876
0.00092212
0.00103742
0.00112085
0.00118493
0.00124336
0.00130358
0.00136931
0.00143867
6.46512E-05
0.000363426
0.000590154
0.00078338
0.000943544
0.00106745
0.0011583
0.00122348
0.00127496
0.0013223
0.00136925
0.00141836
0.0014823
0.00155081
0.00161562
0.00168526
0.00177098
0.00186129
0.0019055
0.00191283
0.00191424
0.00191487
0.00191527
0.00191555
0.00191573
0.00191583
0.00191587
0.00191583
0.00191573
0.00191555
0.00191527
0.00191487
0.00191424
0.00191283
0.0019055
0.00186131
0.001771
0.00168529
0.00161565
0.00155085
0.00148235
6.46532E-05
0.000363356
0.000590094
0.00078345
0.000943608
0.00106746
0.0011583
0.0012235
0.001275
0.00132236
0.00136931
0.00141842
6.56476E-05
0.000379722
0.00060641
0.000796578
0.000960414
0.00109053
0.00118851
0.00125877
0.00130971
0.00135064
0.00138729
0.00141836
0.00145192
0.00151926
0.00158457
0.00164995
0.00172671
0.00181938
0.00189151
0.00191091
0.00191377
0.00191461
0.0019151
0.00191543
0.00191566
0.0019158
0.00191587
0.00191587
0.0019158
0.00191566
0.00191543
0.0019151
0.00191461
0.00191377
0.00191091
0.00189152
0.00181941
0.00172673
0.00164998
0.00158461
0.0015193
0.00145197
6.56502E-05
0.000379662
0.00060637
0.000796582
0.000960484
0.00109058
0.00118852
0.00125878
0.00130974
0.00135068
0.00138735
0.00141842
6.63748E-05
0.000391606
0.000624222
0.000813112
0.000975332
0.00110872
0.0012121
0.00128798
0.00134214
0.00138189
0.0014136
0.00143862
0.0014823
0.00155081
0.00161562
0.00168526
0.00177098
0.0018613
0.0019055
0.00191283
0.00191425
0.00191487
0.00191527
0.00191555
0.00191573
0.00191583
0.00191587
0.00191583
0.00191573
0.00191555
0.00191527
0.00191487
0.00191424
0.00191283
0.0019055
0.00186131
0.001771
0.00168528
0.00161565
0.00155085
0.00148235
6.63776E-05
0.0003916
0.000624192
0.000813114
0.000975382
0.00110879
0.00121214
0.001288
0.00134215
0.00138192
0.00141364
0.00143868
6.70578E-05
0.000400716
0.000639038
0.000830854
0.00099128
0.00112438
0.00123071
0.00131115
0.0013696
0.00141147
0.00144232
0.00146503
0.00151112
0.00157969
0.00164624
0.00172293
0.00181532
0.00188951
0.00191061
0.00191364
0.00191455
0.00191505
0.0019154
0.00191562
0.00191576
0.00191583
0.00191583
0.00191576
0.00191562
0.00191539
0.00191505
0.00191455
0.00191364
0.00191061
0.00188952
0.00181534
0.00172295
0.00164626
0.00157972
0.00151116
6.70582E-05
0.000400718
0.000639046
0.000830858
0.000991314
0.00112444
0.00123076
0.00131117
0.00136961
0.00141148
0.00144234
0.00146507
6.76244E-05
0.00040646
0.000650506
0.000846672
0.00100793
0.00113954
0.00124625
0.0013294
0.00139171
0.00143703
0.00146971
0.00149276
0.00153888
0.00160731
0.00167773
0.00176246
0.00185401
0.00190358
0.00191245
0.00191407
0.00191475
0.00191518
0.00191547
0.00191566
0.00191576
0.0019158
0.00191576
0.00191566
0.00191547
0.00191518
0.00191475
0.00191407
0.00191245
0.00190358
0.00185403
0.00176248
0.00167775
0.00160733
0.00153891
6.76256E-05
0.000406484
0.00065052
0.00084669
0.00100796
0.00113958
0.00124631
0.00132943
0.00139172
0.00143704
0.00146972
0.00149279
6.76232E-05
0.00040857
0.00065801
0.00085922
0.00102318
0.00115453
0.0012603
0.00134427
0.00140918
0.00145799
0.00149387
0.00151919
0.00156524
0.00163433
0.00171026
0.00180131
0.00188151
0.00190921
0.00191326
0.00191431
0.00191489
0.00191526
0.00191551
0.00191566
0.00191573
0.00191573
0.00191566
0.00191551
0.00191526
0.00191489
0.00191431
0.00191326
0.00190921
0.00188151
0.00180132
0.00171028
0.00163434
0.00156525
6.76288E-05
0.0004086
0.000658034
0.00085924
0.0010232
0.00115457
0.00126035
0.0013443
0.00140919
0.00145799
0.00149387
0.0015192
6.70562E-05
0.000408572
0.00066162
0.000867786
0.0010355
0.00116826
0.00127344
0.00135703
0.00142314
0.0014747
0.00151418
0.00154306
0.0015899
0.00166085
0.00174293
0.00183534
0.00189709
0.00191142
0.00191365
0.00191448
0.00191498
0.00191531
0.00191551
0.00191562
0.00191566
0.00191562
0.00191551
0.0019153
0.00191498
0.00191448
0.00191365
0.00191142
0.00189709
0.00183535
0.00174294
0.00166086
0.0015899
6.70624E-05
0.000408596
0.000661648
0.000867806
0.00103552
0.00116829
0.00127347
0.00135707
0.00142316
0.00147471
0.00151418
0.00154307
6.63744E-05
0.00040646
0.00066162
0.000872148
0.00104412
0.00117951
0.00128523
0.00136835
0.00143467
0.00148799
0.00153076
0.00156392
0.00161264
0.00168657
0.00177374
0.0018612
0.00190468
0.00191233
0.00191387
0.00191458
0.00191503
0.00191531
0.00191547
0.00191555
0.00191555
0.00191547
0.00191531
0.00191503
0.00191458
0.00191387
0.00191233
0.00190468
0.00186121
0.00177375
0.00168657
0.00161264
6.63778E-05
0.000406484
0.00066165
0.00087217
0.00104414
0.00117953
0.00128525
0.00136838
0.00143469
0.001488
0.00153076
0.00156392
0.000065648
0.000400714
0.000658006
0.000872146
0.00104859
0.00118749
0.00129491
0.00137822
0.00144444
0.00149871
0.00154415
0.00158168
0.00163332
0.00171066
0.00180044
0.00187849
0.00190813
0.00191277
0.00191399
0.00191463
0.00191503
0.00191526
0.0019154
0.00191543
0.0019154
0.00191526
0.00191503
0.00191463
0.00191399
0.00191278
0.00190813
0.00187849
0.00180044
0.00171066
0.00163332
6.56508E-05
0.000400744
0.000658038
0.000872172
0.0010486
0.0011875
0.00129492
0.00137824
0.00144446
0.00149872
0.00154415
0.00158168
6.46506E-05
0.000391604
0.000650502
0.00086778
0.00104858
0.00119164
0.00130179
0.00138623
0.00145267
0.00150749
0.00155496
0.00159667
0.00165183
0.00173213
0.00182175
0.00188896
0.00190973
0.00191298
0.00191405
0.00191463
0.00191498
0.00191518
0.00191527
0.00191527
0.00191518
0.00191498
0.00191463
0.00191405
0.00191298
0.00190973
0.00188896
0.00182176
0.00173213
0.00165182
6.46532E-05
0.000391628
0.000650538
0.00086781
0.00104861
0.00119165
0.0013018
0.00138624
0.00145269
0.0015075
0.00155497
0.00159666
6.33446E-05
0.000379712
0.000639038
0.000859218
0.00104412
0.00119164
0.00130538
0.00139191
0.00145923
0.00151465
0.00156371
0.00160911
0.0016679
0.00175027
0.00183749
0.00189497
0.00191045
0.00191307
0.00191405
0.00191458
0.00191489
0.00191505
0.0019151
0.00191505
0.00191489
0.00191458
0.00191405
0.00191308
0.00191045
0.00189497
0.00183749
0.00175027
0.00166789
6.33448E-05
0.000379746
0.000639072
0.000859248
0.00104414
0.00119165
0.00130539
0.00139192
0.00145924
0.00151466
0.00156371
0.0016091
6.19562E-05
0.000363424
0.000624226
0.00084668
0.0010355
0.00118749
0.00130538
0.00139487
0.00146384
0.00152023
0.0015707
0.00161932
0.00168145
0.00176472
0.00184836
0.00189816
0.00191075
0.00191308
0.00191399
0.00191448
0.00191475
0.00191487
0.00191487
0.00191475
0.00191448
0.00191399
0.00191308
0.00191075
0.00189816
0.00184835
0.00176472
0.00168145
6.19696E-05
0.000363402
0.000624272
0.000846708
0.00103552
0.0011875
0.00130539
0.00139488
0.00146384
0.00152024
0.0015707
0.00161932
0.00006202
0.000348536
0.000606432
0.000830876
0.00102319
0.00117952
0.00130179
0.00139487
0.00146623
0.00152409
0.00157604
0.00162748
0.0016924
0.00177549
0.00185506
0.00189955
0.00191075
0.00191298
0.00191387
0.00191431
0.00191455
0.00191461
0.00191455
0.00191431
0.00191387
0.00191298
0.00191075
0.00189955
0.00185506
0.00177549
0.0016924
6.21632E-05
0.000348546
0.00060645
0.000830906
0.00102321
0.00117953
0.0013018
0.00139488
0.00146623
0.0015241
0.00157604
0.00162748
6.22534E-05
0.000340244
0.000590142
0.000813154
0.00100797
0.00116829
0.00129492
0.00139192
0.00146623
0.00152608
0.00157969
0.00163368
0.00170073
0.00178261
0.00185828
0.00189955
0.00191046
0.00191278
0.00191365
0.00191407
0.00191425
0.00191425
0.00191407
0.00191365
0.00191278
0.00191045
0.00189954
0.00185828
0.00178261
0.00170072
6.22874E-05
0.00034004
0.000590186
0.000813178
0.00100799
0.00116829
0.00129492
0.00139192
0.00146623
0.00152608
0.00157969
0.00163368
0.000062591
0.000331986
0.000579702
0.000796614
0.000991338
0.00115458
0.00128525
0.00138624
0.00146384
0.00152608
0.00158155
0.00163788
0.00170635
0.00178618
0.00185828
0.00189816
0.00190973
0.00191233
0.00191326
0.00191364
0.00191377
0.00191364
0.00191326
0.00191233
0.00190973
0.00189816
0.00185828
0.00178617
0.00170634
6.16782E-05
0.00033202
0.000579556
0.000796648
0.000991352
0.00115458
0.00128525
0.00138624
0.00146384
0.00152608
0.00158155
0.00163787
6.25214E-05
0.000318906
0.000568508
0.000783436
0.000975392
0.0011396
0.00127348
0.00137824
0.00145924
0.0015241
0.00158156
0.00164001
0.00170919
0.00178618
0.00185507
0.00189498
0.00190813
0.00191142
0.00191245
0.00191283
0.00191283
0.00191245
0.00191142
0.00190813
0.00189497
0.00185506
0.00178617
0.00170918
6.31076E-05
0.000318638
0.0005685
0.000783376
0.000975416
0.0011396
0.00127347
0.00137824
0.00145924
0.00152409
0.00158155
0.00164001
6.07568E-05
0.000301496
0.000552862
0.000768798
0.000960462
0.00112444
0.00126035
0.00136839
0.00145269
0.00152024
0.00157969
0.00164001
0.00170919
0.00178262
0.00184836
0.00188896
0.00190469
0.00190921
0.00191061
0.00191091
0.00191061
0.00190921
0.00190469
0.00188896
0.00184836
0.00178261
0.00170918
6.07562E-05
0.000301646
0.000552724
0.000768782
0.000960456
0.00112446
0.00126035
0.00136838
0.00145268
0.00152023
0.00157969
0.00164
5.72538E-05
0.000283974
0.000531754
0.000749878
0.000943556
0.00110876
0.0012463
0.00135707
0.00144447
0.00151467
0.00157605
0.00163788
0.00170635
0.0017755
0.0018375
0.0018785
0.0018971
0.00190358
0.00190551
0.00190551
0.00190358
0.0018971
0.0018785
0.0018375
0.00177549
0.00170634
5.72528E-05
0.000284002
0.000531788
0.000749826
0.000943564
0.00110877
0.00124631
0.00135707
0.00144446
0.00151466
0.00157604
0.00163787
5.39598E-05
0.000261514
0.000504972
0.000724654
0.00092209
0.00109054
0.00123074
0.0013443
0.0014347
0.00150751
0.00157071
0.00163369
0.00170073
0.00176473
0.00182176
0.0018612
0.00188151
0.00188952
0.00189152
0.00188952
0.00188152
0.00186121
0.00182177
0.00176473
0.00170072
5.39604E-05
0.000261604
0.000505028
0.000724674
0.000922088
0.00109055
0.00123075
0.00134431
0.00143469
0.0015075
0.0015707
0.00163368
5.05078E-05
0.000239716
0.00047134
0.000691084
0.000893788
0.00106742
0.00121211
0.00132942
0.00142316
0.00149873
0.00156372
0.00162749
0.00169241
0.00175028
0.00180044
0.00183534
0.00185402
0.0018613
0.00186131
0.00185403
0.00183536
0.00180045
0.00175028
0.0016924
5.05078E-05
0.000239728
0.000471474
0.000691154
0.000893818
0.00106744
0.00121213
0.00132943
0.00142316
0.00149872
0.00156371
0.00162748
0.000224978
0.00043758
0.000650752
0.00085677
0.00103739
0.00118849
0.00131115
0.00140919
0.00148801
0.00155498
0.00161933
0.00168147
0.00173214
0.00177375
0.00180131
0.00181532
0.0018194
0.00181533
0.00180133
0.00177376
0.00173214
0.00168146
0.000224984
0.000437622
0.000650882
0.00085684
0.00103743
0.00118852
0.00131117
0.0014092
0.00148801
0.00155497
0.00161932
0.000416568
0.000610766
0.00081287
0.00099916
0.00115827
0.00128797
0.00139171
0.00147471
0.00154417
0.00160912
0.00166791
0.00171067
0.00174294
0.00176246
0.00177099
0.00177099
0.00176248
0.00174296
0.00171068
0.00166791
0.00041658
0.00061083
0.000812982
0.000999226
0.00115831
0.001288
0.00139173
0.00147472
0.00154417
0.00160911
0.000585014
0.000770278
0.000954978
0.0011208
0.00125874
0.00136959
0.00145799
0.00153077
0.00159667
0.00165184
0.00168657
0.00171027
0.00172294
0.00172672
0.00172295
0.00171029
0.00168659
0.00165184
0.000585036
0.000770346
0.000955066
0.00112085
0.00125878
0.00136962
0.001458
0.00153078
0.00159668
0.000742008
0.000913112
0.00107877
0.00122345
0.00134212
0.00143702
0.00151418
0.00158169
0.00163333
0.00166086
0.00167774
0.00168528
0.00168528
0.00167775
0.00166087
0.00163333
0.000742032
0.000913174
0.00107884
0.00122349
0.00134215
0.00143705
0.00151419
0.0015817
0.000885016
0.00103957
0.00118486
0.00130969
0.00141146
0.00149386
0.00156392
0.00161264
0.00163434
0.00164626
0.00164997
0.00164626
0.00163435
0.00161266
0.000885038
0.00103962
0.00118491
0.00130973
0.00141148
0.00149388
0.00156393
0.0010133
0.00114936
0.00127494
0.00138188
0.0014697
0.00154306
0.0015899
0.00160732
0.00161564
0.00161565
0.00160734
0.00158992
0.00101332
0.00114939
0.00127498
0.00138191
0.00146973
0.00154308
0.00112575
0.0012433
0.00135064
0.00144231
0.00151919
0.00156524
0.00157971
0.0015846
0.00157972
0.00156526
0.00112576
0.00124332
0.00135066
0.00144234
0.00151921
0.0012224
0.00132231
0.0014136
0.00149277
0.00153889
0.00155083
0.00155083
0.00153891
0.00122241
0.00132233
0.00141362
0.00149279
0.00130354
0.0013873
0.00146504
0.00151113
0.00151928
0.00151114
0.00130354
0.00138732
0.00146506
0.00136927
0.00143864
0.00148232
0.00148233
0.00136928
0.00143865
0.00141838
0.00145194
0.00141838
)
