
ELEMENTS
O  H  C  N  AR
END  
!
SPECIES    
H  O  OH  H2  O2  HO2  H2O  H2O2            
CO CO2 HOCO 
!
CH4 CH3 CH2 CH2(S) CH C
CH3OH CH3O CH2OH CH2O HCO 
CH3OOH CH3OO CH2OOH 
C2H6 C2H5 C2H4 C2H3 C2H2 H2CC C2H C2
CH3CH2OH CH3CH2O CH3CHOH CH2CH2OH CH3CHO cC2H4O 
CH2CHOH CHCHOH cC2H3O HCCOH CH3CO CH2CHO CH2CO HCCO C2O OCHCHO
CH3CH2OOH CH3CH2OO CH3CHOOH CH2CH2OOH CH2CHOOH CH2CHOO CYCOOCD HOCH2CH2OO
!
C3H6 CH2CHCH2 CH2CCH3 CH3CHCH CH3CCH2 H2CCCH2 H3CCCH cC3H4 H2CCCH C3H2 C3H
C2H5CHO C2H5CO CH2CHCHO CH3CHCO CH2CHCO
!
NO NO2 NO3 N2O HNO HON HONO HNO2 H2NO HNOH HONO2  
CH3NO CH3NO2 CH2NO2 CH3ONO CH3ONO2 C2H5NO2 CH3CH2ONO CH3CH2ONO2 
!
NH3 NH2 NH N N2H4 N2H3 N2H2 H2NN NNH  
HCN HNC CN HNCO HOCN HCNO NCO H2CN HCNH CH3CN CH2CN NCCN NCN  
AR N2
 END
!
 REACTIONS
!
! *****************************************************************************
!    H2/O2 subset                                                             *
! *****************************************************************************
!
 H+O2=O+OH                            3.6E15  -0.410   16600 ! RAS/GLA08a HES98
 H+H+M=H2+M                           7.0E17  -1.000       0 ! RAS/GLA08a COH/WES83
   N2/0/ H2O/0/ H2/0/                                        !
 H+H+N2=H2+N2                         5.4E18  -1.300       0 ! RAS/GLA08a COH/WES83
 H+H+H2=H2+H2                         1.0E17  -0.600       0 ! RAS/GLA08a COH/WES83
 H+H+H2O=H2+H2O                       1.0E19  -1.000       0 ! RAS/GLA08a COH/WES83
 H+O+M=OH+M                           6.2E16  -0.600       0 ! RAS/GLA08a MIL/BOW89
   H2O/5/                                                    ! 
 H+O2(+M)=HO2(+M)                     1.5E12   0.600       0 ! RAS/GLA08a MUE/DRY98
   LOW  / 3.5E16 -0.41 -1116 /                               !
   TROE / 0.5 1.0E-30 1.0E30 /                               !
   N2/0/ AR/0/ H2O/11/ H2/2/ O2/0.78/                        !
 H+O2(+AR)=HO2(+AR)                   1.5E12   0.600       0 ! RAS/GLA08a MUE/DRY98 
   LOW  / 9.04E19 -1.500 490 /                               !
   TROE / 0.5 1.0E-30 1.0E30 /                               !
 H+O2(+N2)=HO2(+N2)                   1.5E12   0.600       0 ! RAS/GLA08a LI/DRY04
   LOW  / 6.37E20 -1.720 520 /                               !
   TROE / 0.8 1.0E-30 1.0E30 /                               !
 O+O+M=O2+M                           1.9E13   0.000   -1788 ! RAS/GLA08a NBS86
   N2/1.5/ O2/1.5/ H2O/10/                                   !
 O+H2=OH+H                            3.8E12   0.000    7948 ! RAS/GLA08a CEC05
   DUPLICATE                                                 !
 O+H2=OH+H                            8.8E14   0.000   19175 ! RAS/GLA08a CEC05
   DUPLICATE                                                 !
 OH+OH=O+H2O                          4.3E03   2.700   -1822 ! RAS/GLA08a SRI/MIC06
 OH+H+M=H2O+M                         4.5E22  -2.000       0 ! RAS/GLA08a CON/WES04
   AR/0.38/ H2/0.73/ H2O/12/ !HE/0.38/                       !   
 OH+H2=H+H2O                          2.1E08   1.520    3449 ! RAS/GLA08a MIC92
 H2+O2=HO2+H                          7.4E05   2.433   53502 ! RAS/GLA08a MIC/WAG00 
 HO2+H=OH+OH                          8.4E13   0.000     400 ! RAS/GLA08a RAS/GLA08a
 HO2+H=H2O+O                          1.4E12   0.000       0 ! RAS/GLA08a CEC05
 HO2+O=OH+O2                          1.6E13   0.000    -445 ! RAS/GLA08a CEC05
 HO2+OH=H2O+O2                        3.6E21  -2.100    9000 ! RAS/GLA08a RAS/GLA08a
   DUPLICATE                                                 !
 HO2+OH=H2O+O2                        2.0E15  -0.600       0 ! 
   DUPLICATE                                                 !
 HO2+OH=H2O+O2                       -2.2E96 -24.000   49000 !
   DUPLICATE                                                 !
 HO2+HO2=H2O2+O2                      1.9E11   0.000   -1408 ! RAS/GLA08a KAP/TROE02
   DUPLICATE                                                 !
 HO2+HO2=H2O2+O2                      1.0E14   0.000   11034 !
   DUPLICATE                                                 !
 H2O2(+M)=OH+OH(+M)                   4.0E11   0.000   37137 ! RAS/GLA08a KAP/TRO02
   LOW  /2.291E16 0.0 43638/                                 !
   TROE /0.5 1E-30 1E30 1E30/                                !  (Fc=0.5)
   H2O/12/ H2/2.5/ AR/0.64/                                  !
 H2O2+H=H2O+OH                        1.0E13   0.000    3580 ! RAS/GLA08a CEC05
 H2O2+H=HO2+H2                        1.7E12   0.000    3760 ! RAS/GLA08a CEC05
 H2O2+O=HO2+OH                        9.6E06   2.000    3970 ! RAS/GLA08a NBS86,MAR99,LI/DRY04
 H2O2+OH=H2O+HO2                      1.9E12   0.000     427 ! RAS/GLA08a HIP/TRO95
   DUPLICATE                                                 !
 H2O2+OH=H2O+HO2                      1.6E18   0.000   29410 ! RAS/GLA08a HIP/TRO95
   DUPLICATE                                                 !
!
! *****************************************************************************
!    CO/CO2 subset                                                            *
! *****************************************************************************
!
 CO+O(+M)=CO2(+M)                     1.8E10   0.000    2384 ! RAS/GLA08a MUL/DRY99
   LOW  /1.35E24 -2.79 4191/                                 ! 
   TROE /1.0 1E-30 1E30 1E30/                                ! 
   H2/2.5/ H2O/12/ CO/1.9/ CO2/3.8/                          !
 CO+O2=CO2+O                          4.7E12   0.000   60500 ! RAS/GLA08a BAC/MAC05
 CO+HO2=CO2+OH                        1.6E05   2.180   17943 ! RAS/GLA08a YOU/KLI07
!CO+OH=CO2+H                          9.3E10   0.000       0 ! RAS/GLA08a (0.001 bar, 300<T<2000K)
!  DUPLICATE                                                 !
!CO+OH=CO2+H                          7.1E05   1.800    1133 ! RAS/GLA08a (0.001 bar, 300<T<2000K)
!  DUPLICATE                                                 !
!CO+OH=HOCO                           1.0E25  -6.000    2981 ! RAS/GLA08a (0.001 bar, 300<T<2000K)
!CO+OH=CO2+H                          8.0E10   0.000       0 ! RAS/GLA08a (1 bar, 300<T<2000K)
!  DUPLICATE                                                 !
!CO+OH=CO2+H                          8.8E05   1.770     954 ! RAS/GLA08a (1 bar, 300<T<2000K)
!  DUPLICATE                                                 !
!CO+OH=HOCO                           6.0E26  -5.600    2881 ! RAS/GLA08a (1 bar, 300<T<2000K)
!CO+OH=CO2+H                          7.0E10   0.000       0 ! RAS/GLA08a (3 bar, 300<T<2000K)
!  DUPLICATE                                                 !
!CO+OH=CO2+H                          2.9E05   1.900     397 ! RAS/GLA08a (3 bar, 300<T<2000K)
!  DUPLICATE                                                 !
!CO+OH=HOCO                           2.2E27  -5.600    3239 ! RAS/GLA08a (3 bar, 300<T<2000K)
!CO+OH=CO2+H                          3.7E12   0.000   12518 ! RAS/GLA08a (10 bar, 300<T<2000K)
!  DUPLICATE                                                 !
!CO+OH=CO2+H                          9.3E07   1.100       0 ! RAS/GLA08a (10 bar, 300<T<2000K)
!  DUPLICATE                                                 !
!CO+OH=HOCO                           1.5E25  -5.000    1987 ! RAS/GLA08a (10 bar, 300<T<2000K)
!  DUPLICATE                                                 !
!CO+OH=HOCO                           1.3E37  -8.400    7948 ! RAS/GLA08a (10 bar, 300<T<2000K)
!  DUPLICATE                                                 !
!CO+OH=CO2+H                          2.9E12   0.000   11922 ! RAS/GLA08a (20 bar, 300<T<2000K)
!  DUPLICATE                                                 !
!CO+OH=CO2+H                          4.5E07   1.200       0 ! RAS/GLA08a (20 bar, 300<T<2000K)
!  DUPLICATE                                                 !
!CO+OH=HOCO                           4.2E26  -5.700    1927 ! RAS/GLA08a (20 bar, 300<T<2000K)
!  DUPLICATE                                                 !
!CO+OH=HOCO                           7.5E28  -6.000    3775 ! RAS/GLA08a (20 bar, 300<T<2000K)
!  DUPLICATE                                                 !
!CO+OH=HOCO                           4.0E39  -9.000    9935 ! RAS/GLA08a (20 bar, 300<T<2000K)
!  DUPLICATE                                                 !
 CO+OH=CO2+H                          1.5E12   0.000   13909 ! RAS/GLA08a (50 bar, 150<T<2000K)
   DUPLICATE                                                 !
 CO+OH=CO2+H                          5.8E06   1.500       0 ! RAS/GLA08a (50 bar, 150<T<2000K)
   DUPLICATE                                                 !
 CO+OH=HOCO                           4.9E25  -5.200    1987 ! RAS/GLA08a (50 bar, 150<T<2000K)
   DUPLICATE                                                 !
 CO+OH=HOCO                           4.0E38  -9.000    6955 ! RAS/GLA08a (50 bar, 150<T<2000K)
   DUPLICATE                                                 !
 CO+OH=HOCO                           5.0E43 -10.000   13015 ! RAS/GLA08a (50 bar, 150<T<2000K)
   DUPLICATE                                                 !
!CO+OH=CO2+H                          1.5E11   0.000    1987 ! RAS/GLA08a (80 bar, 150<T<2000K)
!  DUPLICATE                                                 !
!CO+OH=CO2+H                          2.5E05   1.900       0 ! RAS/GLA08a (80 bar, 150<T<2000K)
!  DUPLICATE                                                 !
!CO+OH=HOCO                           5.2E25  -5.200    1987 ! RAS/GLA08a (80 bar, 150<T<2000K)
!  DUPLICATE                                                 !
!CO+OH=HOCO                           7.7E35  -8.000    6557 ! RAS/GLA08a (80 bar, 150<T<2000K)
!  DUPLICATE                                                 !
!CO+OH=HOCO                           9.0E47 -11.200   15499 ! RAS/GLA08a (80 bar, 150<T<2000K)
!  DUPLICATE                                                 !
!CO+OH=CO2+H                          1.5E11   0.000    1987 ! RAS/GLA08a (100 bar, 250<T<2000K)
!  DUPLICATE                                                 !
!CO+OH=CO2+H                          1.9E05   1.940       0 ! RAS/GLA08a (100 bar, 250<T<2000K)
!  DUPLICATE                                                 !
!CO+OH=HOCO                           1.1E28  -6.000    2384 ! RAS/GLA08a (100 bar, 250<T<2000K)
!  DUPLICATE                                                 !
!CO+OH=HOCO                           1.8E36  -8.000    7153 ! RAS/GLA08a (100 bar, 250<T<2000K)
!  DUPLICATE                                                 !
!CO+OH=HOCO                           2.0E54 -13.000   19671 ! RAS/GLA08a (100 bar, 250<T<2000K)
!  DUPLICATE                                                 !
!CO+OH=CO2+H                          2.3E11   0.200    4968 ! RAS/GLA08a (650 bar, 300<T<2000K)
!  DUPLICATE                                                 !
!CO+OH=CO2+H                          7.0E05   1.700     298 ! RAS/GLA08a (650 bar, 300<T<2000K)
!  DUPLICATE                                                 !
!CO+OH=HOCO                           3.2E41 -10.000    6955 ! RAS/GLA08a (650 bar, 300<T<2000K)
!  DUPLICATE                                                 !
!CO+OH=HOCO                           2.9E66 -17.100   19870 ! RAS/GLA08a (650 bar, 300<T<2000K)
!  DUPLICATE                                                 !
!CO+OH=HOCO                           2.0E63 -15.200   27421 ! RAS/GLA08a (650 bar, 300<T<2000K)
!  DUPLICATE                                                 !
!CO+OH=CO2+H                          3.7E07   1.340    2186 ! RAS/GLA08a (2000 bar, 300<T<2000K)
!CO+OH=HOCO                           5.5E44 -11.000    7948 ! RAS/GLA08a (2000 bar, 300<T<2000K)
!  DUPLICATE                                                 !
!CO+OH=HOCO                           2.7E67 -17.000   22851 ! RAS/GLA08a (2000 bar, 300<T<2000K)
!  DUPLICATE                                                 !
!CO+OH=HOCO                           1.0E74 -18.000   37157 ! RAS/GLA08a (2000 bar, 300<T<2000K)
!  DUPLICATE                                                 !
!
!HOCO=CO2+H               3.5E56*P[bar]^0.95 -15.000   46500 ! RAS/GLA08a (1-100 bar, 300<T<2000K)
!  DUPLICATE                                                 !
!HOCO=CO2+H               2.5E69*P[bar]^0.95 -18.000   60000 ! RAS/GLA08a (1-100 bar, 300<T<2000K)
!  DUPLICATE                                                 !
!HOCO=CO2+H                           3.5E56 -15.000   46500 ! RAS/GLA08a (1 bar)
!  DUPLICATE                                                 !
!HOCO=CO2+H                           2.5E69 -18.000   60000 ! RAS/GLA08a (1 bar)
!  DUPLICATE                                                 !
!HOCO=CO2+H                           3.2E57 -15.000   46500 ! RAS/GLA08a (10 bar)
!  DUPLICATE                                                 !
!HOCO=CO2+H                           2.2E70 -18.000   60000 ! RAS/GLA08a (10 bar)
!  DUPLICATE                                                 !
!HOCO=CO2+H                           6.0E57 -15.000   46500 ! RAS/GLA08a (20 bar)
!  DUPLICATE                                                 !
!HOCO=CO2+H                           4.3E70 -18.000   60000 ! RAS/GLA08a (20 bar)
!  DUPLICATE                                                 !
 HOCO=CO2+H                           1.4E58 -15.000   46500 ! RAS/GLA08a (50 bar)
   DUPLICATE                                                 !
 HOCO=CO2+H                           1.0E71 -18.000   60000 ! RAS/GLA08a (50 bar)
   DUPLICATE                                                 !
!HOCO=CO2+H                           2.8E58 -15.000   46500 ! RAS/GLA08a (100 bar)
!  DUPLICATE                                                 !
!HOCO=CO2+H                           2.0E71 -18.000   60000 ! RAS/GLA08a (100 bar)
!  DUPLICATE                                                 !
 HOCO+OH=CO2+H2O                      4.6E12   0.000     -89 ! RAS/GLA08a YU/FRA05
   DUPLICATE                                                 !
 HOCO+OH=CO2+H2O                      9.5E06   2.000     -89 ! 
   DUPLICATE                                                 !
!HOCO+OH=CO+H2O2                      1.0E13   0.000       0 ! RAS/GLA08a - omitted pending further investigation
 HOCO+O2=CO2+HO2                      9.9E11   0.000       0 ! RAS/GLA08a NOL/WAG93
!
! *****************************************************************************
!    CH2O subset                                                              *
! *****************************************************************************
! 
 CH2O(+M)=HCO+H(+M)                   8.0E15   0.000   87726 ! RAS/GLA08b TRO05
   LOW  /3.734E15 0.0 73479/                                 !
 CH2O(+M)=CO+H2(+M)                   3.7E13   0.000   71969 ! RAS/GLA08b TRO05
   LOW  /5.661E15 0.0 65849/                                 !
 CH2O+H=HCO+H2                        4.1E08   1.470    2444 ! RAS/GLA08b CEC05
 CH2O+O=HCO+OH                        4.2E11   0.570    2760 ! RAS/GLA08b CEC92,CEC05
 CH2O+O2=HCO+HO2                      2.4E05   2.500   36461 ! RAS/GLA08b CEC05
 CH2O+OH=HCO+H2O                      7.8E07   1.630   -1055 ! RAS/GLA08b VAS/HAN05
 CH2O+HO2=HCO+H2O2                    4.1E04   2.500   10206 ! RAS/GLA08b EIT/FRE98
 CH2O+CH3=HCO+CH4                     3.2E01   3.360    4310 ! RAS/GLA08b CEC05
!HCO=H+CO                             9.9E11  -0.865   16755 ! RAS/GLA08b HIP/STR04 1 atm
!HCO=H+CO               9.83E11*P[bar]^0.865  -0.865   16755 ! RAS/GLA08b HIP/STR04 general pressure dependency
!HCO=H+CO                             1.3E13  -0.865   16755 ! RAS/GLA08b HIP/STR04  20    bar
 HCO=H+CO                             2.9E13  -0.865   16755 ! RAS/GLA08b HIP/STR04  50    bar
!HCO=H+CO                             5.3E13  -0.865   16755 ! RAS/GLA08b HIP/STR04 100    bar
 HCO+H=CO+H2                          1.1E14   0.000       0 ! RAS/GLA08b FRI/DAV02
 HCO+O=CO+OH                          3.0E13   0.000       0 ! RAS/GLA08b CEC92
 HCO+O=CO2+H                          3.0E13   0.000       0 ! RAS/GLA08b CEC92
 HCO+OH=CO+H2O                        1.1E14   0.000       0 ! RAS/GLA08b CEC05
 HCO+O2=CO+HO2                        3.4E12   0.000       0 ! RAS/GLA08b DES/TAT01
 HCO+HO2=CO2+OH+H                     3.0E13   0.000       0 ! RAS/GLA08b NBS86
 HCO+HCO=CO+CH2O                      2.7E13   0.000       0 ! RAS/GLA08b FRI/DAV02
!
! *****************************************************************************
!    CH4 subset                                                               *
! *****************************************************************************
!  
 CH3+H(+M)=CH4(+M)                    2.1E14   0.000       0 ! RAS/GLA08b COB/TRO90
   LOW  /6.467E23 -1.8 0/                                    ! [He]
   TROE /0.6376 1E-30 3230 1E30/                             ! 
   CH4/1.9/ C2H6/4.8/                                        !
 CH4+H=CH3+H2                         4.1E03   3.156    8755 ! RAS/GLA08b SUT/MIC01
 CH4+O=CH3+OH                         4.4E05   2.500    6577 ! RAS/GLA08b CEC05
 CH4+OH=CH3+H2O                       1.0E06   2.182    2506 ! RAS/GLA08b SRI/MIC05
 CH4+HO2=CH3+H2O2                     4.7E04   2.500   21000 ! RAS/GLA08b CEC05
!CH4+O2=CH3+HO2                               see reverse    !
 CH4+CH2=CH3+CH3                      4.3E12   0.000   10030 ! GLA/MIL98 BOH/WAG85
 CH4+CH2(S)=CH3+CH3                   4.3E13   0.000       0 ! GLA/MIL98 NBS86
 CH2+H(+M)=CH3(+M)                    3.8E16  -0.800       0 !           GRI2.11
  LOW / 4.8E27 -3.14 1230/
  TROE/ 0.68 78 1995 5590 /
  N2/1.0/ H2O/6/  AR/0.7/
 CH3+H=CH2+H2                         9.0E13   0.000   15100 ! GLA/MIL98 GLA/MIL86
 CH2(S)+H2=CH3+H                      7.2E13   0.000       0 ! GLA/MIL98 CEC92
 CH3+O=CH2O+H                         6.9E13   0.000       0 ! RAS/GLA08b CEC05,PRE/FLY00 (82%)
 CH3+O=H2+CO+H                        1.5E13   0.000       0 ! RAS/GLA08b CEC05,PRE/FLY00 (18%)
 CH3+OH=CH2+H2O                       1.1E03   3.000    2780 !           WIL/BAL98
 CH2(S)+H2O=CH3+OH                    3.0E15  -0.600       0 ! GLA/MIL98 HAC/WAG88,CAR/WAG95
!CH3+HO2=CH4+O2                       2.5E08   1.250   -1630 ! RAS/GLA08b ZHU/LIN01b, 300-800K
 CH3+HO2=CH4+O2                       1.8E03   2.830   -3730 ! RAS/GLA08b ZHU/LIN01b, 800-3000K
 CH3+HO2=CH3O+OH                      2.0E13   0.000    1075 ! RAS/GLA08b REI/SMI84
 CH3+O2=CH3O+O                        7.5E12   0.000   28297 ! RAS/GLA08b SRI/MIC05
 CH3+O2=CH2O+OH                       1.9E11   0.000    9842 ! RAS/GLA08b SRI/MIC05
!CH3+O2=CH3OO                         5.0E22  -3.850    2000 ! RAS/GLA08b fit to FER/TRO06 ( 1 bar)
!CH3+O2=CH3OO                         3.4E21  -3.200    2300 ! RAS/GLA08b fit to FER/TRO06 (10 bar)
!CH3+O2=CH3OO                         4.1E20  -2.940    1900 ! RAS/GLA08b fit to FER/TRO06 (20 bar)
!  DUPLICATE                                                 !
!CH3+O2=CH3OO                         3.3E29  -5.600    6850 ! RAS/GLA08b fit to FER/TRO06 (20 bar)
!  DUPLICATE                                                 !
 CH3+O2=CH3OO                         2.8E18  -2.200    1400 ! RAS/GLA08b fit to FER/TRO06 (50 bar)
   DUPLICATE                                                 !
 CH3+O2=CH3OO                         5.6E28  -5.250    6850 ! RAS/GLA08b fit to FER/TRO06 (50 bar)
   DUPLICATE                                                 !
!CH3+O2=CH3OO                         1.1E19  -2.300    1800 ! RAS/GLA08b fit to FER/TRO06 (100bar)
!  DUPLICATE                                                 !
!CH3+O2=CH3OO                         4.1E30  -5.700    8750 ! RAS/GLA08b fit to FER/TRO06 (100bar)
!  DUPLICATE                                                 !
 CH3+HCO=CH4+CO                       2.8E13   0.000       0 ! RAS/GLA08b CAL/COO89
 CH3+CH3=C2H5+H                       5.4E13   0.000   16055 ! RAS/GLA08b CEC05
 CH3+CH3(+M)=C2H6(+M)                 3.6E13   0.000       0 ! RAS/GLA08b CEC05
   LOW  /1.269E41 -7.0 2762/                                 !
   TROE /0.62 73 1180 1E30/                                  ! Fc=0.38exp(-T/73)+0.62exp(-T/1180)
!
 CH2+M=CH+H+M                         5.6E15  0.000    89000 !           BAU/WAG95
 CH2+M=C+H2+M                         5.8E12  0.500    68500 !           BAU/WAG95
 CH2+H=CH+H2                          1.0E18 -1.560        0 ! GLA/MIL98 GLA/MIL86
 CH2+O=CO+H+H                         5.0E13  0.000        0 ! GLA/MIL98 BOH/WAG84,CEC92 PRD
 CH2+O=CO+H2                          3.0E13  0.000        0 ! GLA/MIL98 BOH/WAG84,CEC92 PRD
 CH2+OH=CH2O+H                        3.0E13  0.000        0 ! GLA/MIL98 JAM est
 CH2+OH=CH+H2O                        1.1E07  2.000     3000 ! GLA/MIL98 JAM est
 CH2+O2=CO+H2O                        2.2E22 -3.300     2867 ! GLA/MIL98 DOM/WAG92,JAM lm
 CH2+O2=CO2+H+H                       3.3E21 -3.300     2867 ! GLA/MIL98 DOM/WAG92,JAM lm
 CH2+O2=CH2O+O                        3.3E21 -3.300     2867 ! GLA/MIL98 DOM/WAG92,JAM lm
 CH2+O2=CO2+H2                        2.6E21 -3.300     2867 ! GLA/MIL98 DOM/WAG92,JAM lm
 CH2+O2=CO+OH+H                       1.6E21 -3.300     2867 ! GLA/MIL98 DOM/WAG92,JAM lm
 CH2+CO2=CO+CH2O                      1.0E11  0.000     1000 ! GLA/MIL98 GLA/MIL86
 CH2(S)+M=CH2+M                       1.0E13  0.000        0 ! GLA/MIL98
     N2/0/ H2O/0/ AR/0/ H/0/
 CH2(S)+N2=CH2+N2                     1.3E13  0.000      430 ! GLA/MIL98 HAY/KIN96
 CH2(S)+AR=CH2+AR                     1.5E13  0.000      884 ! GLA/MIL98 HAY/KIN96
 CH2(S)+H=CH2+H                       2.0E14  0.000        0 ! GLA/MIL98 JAM est
 CH2(S)+H=CH+H2                       3.0E13  0.000        0 ! GLA/MIL98 NBS86
 CH2(S)+O=CO+2H                       3.0E13  0.000        0 ! GLA/MIL98 NBS86
 CH2(S)+OH=CH2O+H                     3.0E13  0.000        0 ! GLA/MIL98 NBS86
 CH2(S)+O2=CO+OH+H                    7.0E13  0.000        0 ! GLA/MIL98 JAM 
 CH2(S)+H2O=CH2+H2O                   3.0E13  0.000        0 ! GLA/MIL98 HAC/WAG88,CAR/WAG95
 CH2(S)+CO2=CH2O+CO                   1.1E13  0.000        0 ! GLA/BEN08 KOC/WAG90
!
 CH+H=C+H2                            1.5E14  0.000        0 ! GLA/MIL98 JAM est
 CH+O=CO+H                            5.7E13  0.000        0 ! GLA/MIL98 MES/CAR81
 CH+OH=HCO+H                          3.0E13  0.000        0 ! GLA/MIL98 JAM est
 CH+OH=C+H2O                          4.0E07  2.000     3000 ! GLA/MIL98 JAM est
 CH+O2=HCO+O                          3.3E13  0.000        0 ! GLA/MIL98 CEC92
 CH+H2O=CH2O+H                        5.7E12  0.000     -755 ! GLA/MIL98 CEC92
 CH+CO2=HCO+CO                        8.8E06  1.750    -1040 ! GLA/BEN08 GLA/BEN08
!
 C+OH=CO+H                            5.0E13  0.000        0 ! GLA/MIL98 JAM est
 C+O2=CO+O                            2.0E13  0.000        0 ! GLA/MIL98 HUS/KIR71
!
 CH3OH(+M)=CH3+OH(+M)                 2.1E18  -0.6148  92540 ! RAS/GLA08c JAS/RUS07
   LOW  /2.60E49 -8.80 101500/                               ! RAS/GLA08c fit to LOW from [JAS/RUS07]
   TROE /0.7656 1910 59.51 9374/                                !
 CH3OH+H=CH2OH+H2                     2.9E09   1.240    4491 ! RAS/GLA08c CEC05 (~85% est)
 CH3OH+H=CH3O+H2                      5.1E08   1.240    4491 ! RAS/GLA08c CEC05 (~15% est)
 CH3OH+O=CH2OH+OH                     2.1E13   0.000    5305 ! RAS/GLA08c CEC05 (~85% est)
 CH3OH+O=CH3O+OH                      3.7E12   0.000    5305 ! RAS/GLA08c CEC05 (~15% est)
 CH3OH+OH=CH2OH+H2O                   1.5E08   1.4434    113 ! RAS/GLA08c SRI/MIC07 (85%)
 CH3OH+OH=CH3O+H2O                    2.7E07   1.4434    113 ! RAS/GLA08c SRI/MIC07 (15%)
 CH3OH+HO2=CH2OH+H2O2                 2.0E13   0.000   15000 ! RAS/GLA08c est
 CH3OH+O2=CH2OH+HO2                   6.0E13   0.000   46600 ! RAS/GLA08c est
 CH3OH+O2=CH3O+HO2                    6.0E13   0.000   54800 ! RAS/GLA08c est
!
 CH2OH(+M)=CH2O+H(+M)                 2.8E14  -0.730   32820 ! RAS/GLA08c HEL/DRY98
   LOW  /6.01E33 -5.39 36200/                                !
   TROE /0.96 67.6 1855 7543/                                !
   H2/2/ H2O/5/ CO/2/ CO2/3/                                 !
 CH2OH+H=CH2O+H2                      1.4E13   0.000       0 ! RAS/GLA08c CEC05,DOB/BER94
 CH2OH+H=CH3+OH                       6.0E12   0.000       0 ! RAS/GLA08c CEC05,DOB/BER94
 CH2OH+H(+M)=CH3OH(+M)                4.3E15  -0.790       0 ! RAS/GLA08c (=CH3+OH(+M)[CEC05] cf. [PER/ZEN97])
   LOW  /3.844E37 -6.21 1333/                                !
   TROE /0.25 210 1434 1E30/                                 !
 CH2OH+O=CH2O+OH                      6.6E13   0.000    -693 ! RAS/GLA08c SEE/GUT94
 CH2OH+OH=CH2O+H2O                    2.4E13   0.000       0 ! RAS/GLA08c NBS87
 CH2OH+HO2=CH2O+H2O2                  1.2E13   0.000       0 ! RAS/GLA08c NBS87
 CH2OH+O2=CH2O+HO2                    7.2E13   0.000    3736 ! RAS/GLA08c CEC05
   DUPLICATE                                                 !
 CH2OH+O2=CH2O+HO2                    2.9E16  -1.500       0 ! RAS/GLA08c CEC05
   DUPLICATE                                                 !
 CH2OH+HCO=CH3OH+CO                   1.0E13   0.000       0 ! RAS/GLA08c FRI/HAN04 (k1/k2=2/3[NBS87])
 CH2OH+HCO=CH2O+CH2O                  1.5E13   0.000       0 ! RAS/GLA08c FRI/HAN04
 CH2OH+CH2O=CH3OH+HCO                 5.5E03   2.810    5862 ! RAS/GLA08c NBS87
 CH2OH+CH2OH=CH3OH+CH2O               4.8E12   0.000       0 ! RAS/GLA08c NBS87
 CH2OH+CH3O=CH3OH+CH2O                2.4E12   0.000       0 ! RAS/GLA08c NBS87
 CH2OH+CH4=CH3OH+CH3                  2.2E01   3.100   16227 ! RAS/GLA08c NBS87
! 
 CH3O(+M)=CH2O+H(+M)                  6.8E13   0.000   26154 ! RAS/GLA08c HIP/VIS01
   LOW  /1.867E25 -3.0 24291/                                !
   TROE /0.5 1000 2000/                                      ! Fit to Fc=0.97-T/1950 [HIP/VIS01] (1-100bar)
 CH3O+H=CH2O+H2                       5.3E13   0.000     745 ! RAS/GLA08c DOB/SZI91 (81%)
 CH3O+H=CH3+OH                        4.6E12   0.000     745 ! RAS/GLA08c DOB/SZI91 ( 7%)
 CH3O+H(+M)=CH3OH(+M)                 2.4E12   0.515      50 ! RAS/GLA08c GRI3.0
   LOW  /4.66E41 -7.44 14080/                                !
   TROE /0.7 100 90000 10000/                                !
   N2/1/ H2/2/ H2O/6/ CH4/2/ CO/1.5/ CO2/2/ C2H6/3/          !
 CH3O+O=CH2O+OH                       3.8E12   0.000       0 ! RAS/GLA08c EWI/ZEL87 (k/ktot=0.25[CEC05])
 CH3O+OH=CH2O+H2O                     1.8E13   0.000       0 ! RAS/GLA08c NBS86
 CH3O+HO2=CH2O+H2O2                   3.0E11   0.000       0 ! RAS/GLA08c NBS86
 CH3O+O2=CH2O+HO2                     2.2E10   0.000    1749 ! RAS/GLA08c WAN/WIN87a 
 CH3O+CO=CH3+CO2                      9.5E25  -4.930    9080 ! RAS/GLA08c WAN/GU99 1bar,200-1000K
 CH3O+CH3=CH2O+CH4                    2.4E13   0.000       0 ! RAS/GLA08b NBS86
 CH3O+CH4=CH3OH+CH3                   1.3E14   0.000   15073 ! RAS/GLA08b WAN/WIN88
 CH3O+CH2O=CH3OH+HCO                  1.0E11   0.000    2981 ! RAS/GLA08b NBS86
 CH3O+CH3O=CH3OH+CH2O                 6.0E13   0.000       0 ! RAS/GLA08b NBS86,FIS/CUR00
!
!CH3OOH=CH3O+OH                       2.0E35  -6.700   47450 ! RAS/GLA08b fit to ZHU/LIN01b ( 1 bar)
!CH3OOH=CH3O+OH                       1.1E28  -4.150   46190 ! RAS/GLA08b fit to ZHU/LIN01b (10 bar)
 CH3OOH=CH3O+OH                       2.8E26  -3.500   46340 ! RAS/GLA08b fit to ZHU/LIN01b (50 bar)
!CH3OOH=CH3O+OH                       2.2E17  -0.420   44622 ! RAS/GLA08b fit to ZHU/LIN01b (high P limit)
 CH3OOH+H=CH2OOH+H2                   5.4E10   0.000    1860 ! RAS/GLA08b SLE/WAR77 (45%)
 CH3OOH+H=CH3OO+H2                    5.4E10   0.000    1860 ! RAS/GLA08b SLE/WAR77 (45%)
 CH3OOH+H=CH3O+H2O                    1.2E10   0.000    1860 ! RAS/GLA08b SLE/WAR77 (10%)
 CH3OOH+O=CH2OOH+OH                   1.6E13   0.000    4750 ! RAS/GLA08b CEC05
 CH3OOH+O=CH3OO+OH                    8.7E12   0.000    4750 ! RAS/GLA08b CEC05
 CH3OOH+OH=CH3OO+H2O                  1.1E12   0.000    -437 ! RAS/GLA08b CEC05 (fit to VAG/RAV89)
 CH3OOH+OH=CH2OOH+H2O                 7.2E11   0.000    -258 ! RAS/GLA08b CEC05 (fit to VAG/RAV89)
 CH3OOH+HO2=CH3OO+H2O2                4.1E04   2.500   10206 ! RAS/GLA08b (=CH2O+HO2=HCO+H2O2[EIT/FRE98])
!
!CH3OO=CH3+O2                                 see reverse    !
 CH3OO+H=CH3O+OH                      1.0E14   0.000       0 ! RAS/GLA08b NBS86
 CH3OO+O=CH3O+O2                      1.6E13   0.000    -445 ! RAS/GLA08b (=HO2+O[CEC05])
 CH3OO+OH=CH3OH+O2                    2.0E15  -0.600       0 ! RAS/GLA08b
 CH3OO+OH=CH3O+HO2                    4.0E11   0.600       0 ! RAS/GLA08b
 CH3OO+HO2=CH3OOH+O2                  2.5E11   0.000   -1490 ! RAS/GLA08b TYN/WAL01
 CH3OO+CH3=CH3O+CH3O                  5.1E12   0.000   -1411 ! RAS/GLA08b KEI/PIL88
 CH3OO+CH4=CH3OOH+CH3                 4.7E04   2.500   21000 ! RAS/GLA08b (=CH4+HO2=CH3+H2O2[CEC05])
 CH3OO+HCO=CH3O+H+CO2                 3.0E13   0.000       0 ! RAS/GLA08b (=HCO+HO2=CO2+OH+H[NBS86])
 CH3OO+CO=CH3O+CO2                    1.6E05   2.180   17940 ! RAS/GLA08b (=CO+HO2=CO2+OH[YOU/KLI07])
 CH3OO+CH2O=CH3OOH+HCO                4.1E04   2.500   10206 ! RAS/GLA08b (=CH2O+HO2=HCO+H2O2[EIT/FRE98])
 CH3OO+CH3O=CH2O+CH3OOH               3.0E11   0.000       0 ! BEN/GLA00b NBS86
 CH3OO+CH3OH=CH3OOH+CH2OH             4.0E13   0.000   19400 ! RAS/GLA08b (=CH3OH+HO2=CH2OH+H2O2[CAT/JAM82])
 CH3OO+CH3OO=CH3O+CH3O+O2             1.1E18  -2.400    1800 ! RAS/GLA08b CEC05 (RAS/GLA08d fit 250<T<2000K)
   DUPLICATE                                                    !
 CH3OO+CH3OO=CH3O+CH3O+O2             7.0E10   0.000     800 ! RAS/GLA08b CEC05 (RAS/GLA08d fit 250<T<2000K)
   DUPLICATE                                                    !
 CH3OO+CH3OO=CH3OH+CH2O+O2            2.0E11  -0.550   -1600 ! RAS/GLA08b CEC05 (RAS/GLA08d fit 250<T<2000K)
 CH3OO+C2H5=CH3O+CH3CH2O              5.1E12   0.000   -1410 ! RAS/GLA08b (=CH3OO+CH3=CH3O+CH3O[KEI/PIL88]}