/*--------------------------------*- C++ -*----------------------------------*\
  =========                 |
  \\      /  F ield         | OpenFOAM: The Open Source CFD Toolbox
   \\    /   O peration     | Website:  https://openfoam.org
    \\  /    A nd           | Version:  10
     \\/     M anipulation  |
\*---------------------------------------------------------------------------*/
FoamFile
{
    format      ascii;
    class       dictionary;
    location    "system";
    object      setFieldsDict;
}
// * * * * * * * * * * * * * * * * * * * * * * * * * * * * * * * * * * * * * //

defaultFieldValues
(
    volScalarFieldValue T 300
    volScalarFieldValue N2 0.77
    volScalarFieldValue O2 0.23
    volScalarFieldValue CH4 0
);

regions
(
    boxToCell
    {
        box (0 -0.0065491427667439 -0.100000001490116) (0.015 0.0065491427667439 0.5);
        fieldValues
        (
            volScalarFieldValue T 2300
            volScalarFieldValue CH4 0.1561
            volScalarFieldValue O2 0.1966
            volScalarFieldValue N2 0.6473
        );
    }
);


// ************************************************************************* //
