




ELEMENTS
H O C N
END

SPECIES
C2H6
C2H5 ! ethylradicIU1/07
C2H4
C2H3 ! VinylRadiATcT/A
C2H2 ! acetyleneg1/91
C2H
CH4 ! RRHOg8/99
CH3
CH2 ! SINGLETIU3/03
CH
CH3O ! METHOXYRADIU1/03
CH2O ! Formaldehydeg8/88
HCO
CO
CO2
O2 ! REFELEMENTRUS89
N2 ! REFELEMENTG8/02
H2O
H
O
OH ! HYDROXYLRADIIU3/03
H2 ! REFELEMENTtpis78
HO2
H2O2
END

REACTIONS



C2H5 + O2 => C2H4 + HO2 750000000000000.0 -1.0 8799.95
C2H4 + O2 => C2H3 + HO2 42200000000000.0 0.0 57623.1
C2H4 + HO2 => C2H3 + H2O2 6000000000000.0 0.0 8190.0
CO2 + M => CO + O + M 10000000000.0 0.0 45500.0
C2H4 + H + M => C2H5 + M 41700000000.0 0.0 11030.0
C2H5 + H => 2 CH3 15000000000000.0 0.0 0.0
C2H4 => C2H3 + H 1000000000000.0 0.0 48200.0
C2H4 + H => C2H5 1800000000000.0 1.0 9400.0
C2H4 + O => CH3 + HCO 3310000000000.0 0.0 1130.0
CH3 + HCO => C2H4 + O 158000000000.0 0.0 31180.0
C2H4 + OH => C2H3 + H2O 4790000000000.0 0.0 1230.0
C2H3 + H2O => C2H4 + OH 1200000000000.0 0.0 14000.0
C2H4 + CH3 => C2H3 + CH4 10000000000000.0 0.0 13000.0
C2H3 + CH4 => C2H4 + CH3 30200000000000.0 0.0 12580.0
C2H4 + H => C2H3 + H2 5000000000000.0 0.0 5000.0
C2H2 + H + M => C2H3 + M 123000000000.0 1.0 10360.0
C2H3 + H => C2H2 + H2 20000000000000.0 0.0 2500.0
C2H3 + OH => C2H2 + H2O 700000000000000.0 0.0 1100.0
C2H3 => C2H + H2 1800000000000.0 0.0 44800.0
C2H + H + M => C2H2 + M 1100000000.0 1.0 770.0
C2H2 + H => C2H + H2 200000000000000.0 0.0 19000.0
C2H2 + OH => C2H + H2O 8000000000000.0 0.0 5000.0
C2H + H2O => C2H2 + OH 5370000000000.0 0.0 16360.0
C2H2 + O => C2H + OH 3240000000000000.0 0.6 12000.0
C2H + OH => C2H2 + O 295000000000000.0 0.6 910.0
C2H + O2 => CO + HCO 10000000000000.0 0.0 7000.0
CO + HCO => C2H + O2 8510000000000.0 0.0 138400.0
C2H + OH => CH + HCO 8000000000000.0 0.0 5000.0
H + O2 => O + OH 500000000000000.0 0.0 16800.0
O + OH => H + O2 12000000000000.0 0.0 690.0
H2 + O => H + OH 18000000000.0 1.0 8826.0
H + OH => H2 + O 8000000000.0 1.0 6760.0
H2 + OH => H + H2O 1170000000.0 1.3 3626.0
H + H2O => H2 + OH 6000000000.0 1.3 18588.0
2 OH => H2O + O 600000000.0 1.3 0.0
H2O + O => 2 OH 4000000000.0 1.3 17029.0
H + O2 + M => HO2 + M 1.800e+18 -0.8 0.0
CH4/6.500E+00/ CO/7.500E-01/ CO2/1.500E+00/ H2/1.000E+00/ H2O/6.500E+00/ N2/4.000E-01/ O2/4.000E-01/
H + HO2 => 2 OH 150000000000000.0 0.0 1004.0
H + HO2 => H2 + O2 25000000000000.0 0.0 700.0
HO2 + OH => H2O + O2 20000000000000.0 0.0 1000.0
CO + OH => CO2 + H 15100000.0 1.3 -758.0
CO2 + H => CO + OH 1570000000.0 1.3 19800.0
CH4 (+M) => CH3 + H (+M) 630000000000000.0 0.0 104000.0
LOW /1.00e+17 0.0 86000.0/
C2H4/3.000E+00/ CH4/6.500E+00/ CO/7.500E-01/ CO2/1.500E+00/ H2/1.000E+00/ H2O/6.500E+00/ N2/4.000E-01/ O2/4.000E-01/
CH3 + H (+M) => CH4 (+M) 5200000000000.0 0.0 -1310.0
LOW /825000000000000.0 0.0 -19310.0/
C2H4/3.000E+00/ CH4/6.500E+00/ CO/7.500E-01/ CO2/1.500E+00/ H2/1.000E+00/ H2O/6.500E+00/ N2/4.000E-01/ O2/4.000E-01/
CH4 + H => CH3 + H2 22000.0 3.0 8750.0
CH3 + H2 => CH4 + H 957.0 3.0 8750.0
CH4 + OH => CH3 + H2O 1600000.0 2.1 2460.0
CH3 + H2O => CH4 + OH 302000.0 2.1 17422.0
CH3 + O => CH2O + H 68000000000000.0 0.0 0.0
CH2O + H => H2 + HCO 50000000000000.0 0.0 3991.0
CH2O + OH => H2O + HCO 140000000000000.0 0.0 1100.0
H + HCO => CO + H2 40000000000000.0 0.0 0.0
HCO + M => CO + H + M 160000000000000.0 0.0 14700.0
CH3 + O2 => CH3O + O 30000000000000.0 0.0 25652.0
CH3O + H => CH2O + H2 20000000000000.0 0.0 0.0
CH3O + M => CH2O + H + M 24000000000000.0 0.0 28812.0
2 HO2 => H2O2 + O2 200000000000000.0 0.0 0.0
H2O2 + M => 2 OH + M 1.300e+17 0.0 45500.0
2 OH + M => H2O2 + M 986000000000000.0 0.0 -5070.0
H2O2 + OH => H2O + HO2 10000000000000.0 0.0 1800.0
H2O + HO2 => H2O2 + OH 28600000000000.0 0.0 32790.0
H + OH + M => H2O + M 2.200e+22 -2.0 0.0
2 H + M => H2 + M 1.800e+18 -1.0 0.0
CH3 + OH => CH2 + H2O 7600000.0 2.0 5000.0
CH2 + O => CO + H2 30000000000000.0 0.0 0.0
CH2 + OH => CH + H2O 11300000.0 2.0 3000.0
CH + O => CO + H 57000000000000.0 0.0 0.0
CH + OH => H + HCO 30000000000000.0 0.0 0.0
CH + O2 => HCO + O 33000000000000.0 0.0 0.0
CH + CO2 => CO + HCO 84000000000000.0 0.0 200.0
END